<?xml version="1.0" encoding="UTF-8"?>
<!-- generated on 2019-05-13 13:46:06.026621 by $Id$ via randomTrips.py
  options: 
-->
<routes xmlns:xsi="http://www.w3.org/2001/XMLSchema-instance" xsi:noNamespaceSchemaLocation="http://sumo.dlr.de/xsd/routes_file.xsd">
    <vType id="veh_passenger" vClass="passenger">
    </vType>
    <trip id="veh0" depart="0.00" departLane="best" from="219651512#0" to="-141132234#6" type="veh_passenger"/>
    <trip id="veh1" depart="0.78" departLane="best" from="-327862982#1" to="-30809073#1" type="veh_passenger"/>
    <trip id="veh2" depart="1.56" departLane="best" from="29024355#3" to="29024051#2" type="veh_passenger"/>
    <trip id="veh3" depart="2.33" departLane="best" from="41391535#2" to="-152485134#1" type="veh_passenger"/>
    <trip id="veh4" depart="3.11" departLane="best" from="104714371#2-AddedOnRampEdge" to="-141646709#1" type="veh_passenger"/>
    <trip id="veh5" depart="3.89" departLane="best" from="-29101240#2" to="165309535#0" type="veh_passenger"/>
    <trip id="veh6" depart="4.67" departLane="best" from="-141125803#0" to="-29156679#1" type="veh_passenger"/>
    <trip id="veh7" depart="5.45" departLane="best" from="234769725#1" to="196964739#0" type="veh_passenger"/>
    <trip id="veh8" depart="6.23" departLane="best" from="-29101305#2" to="239207501#3" type="veh_passenger"/>
    <trip id="veh9" depart="7.00" departLane="best" from="30608260#0" to="-105154958#3" type="veh_passenger"/>
    <trip id="veh10" depart="7.78" departLane="best" from="30043041#1" to="29100247#0" type="veh_passenger"/>
    <trip id="veh11" depart="8.56" departLane="best" departSpeed="max" from="-41260036#1" to="-289705493#1" type="veh_passenger"/>
    <trip id="veh12" depart="9.34" departLane="best" from="75383316#12" to="105154958#13" type="veh_passenger"/>
    <trip id="veh13" depart="10.12" departLane="best" from="-147348797#1" to="-162998952#1" type="veh_passenger"/>
    <trip id="veh14" depart="10.89" departLane="best" from="34707754#0" to="28052075" type="veh_passenger"/>
    <trip id="veh15" depart="11.67" departLane="best" from="301743807#3" to="29174694#2" type="veh_passenger"/>
    <trip id="veh16" depart="12.45" departLane="best" from="144128665#4" to="81177677#1" type="veh_passenger"/>
    <trip id="veh17" depart="13.23" departLane="best" departSpeed="max" from="-58872759#1" to="210580629#1" type="veh_passenger"/>
    <trip id="veh18" depart="14.01" departLane="best" from="34064006#3" to="285305730#2" type="veh_passenger"/>
    <trip id="veh19" depart="14.79" departLane="best" from="35842854#1" to="221409102" type="veh_passenger"/>
    <trip id="veh20" depart="15.56" departLane="best" from="288360877" to="-142264323#3" type="veh_passenger"/>
    <trip id="veh21" depart="16.34" departLane="best" from="-29122388#1" to="-45767123#3" type="veh_passenger"/>
    <trip id="veh22" depart="17.12" departLane="best" from="-143275563#3" to="-34064049#4" type="veh_passenger"/>
    <trip id="veh23" depart="17.90" departLane="best" from="-155842253#9" to="-43635120#0" type="veh_passenger"/>
    <trip id="veh24" depart="18.68" departLane="best" from="219114417#1" to="131746342#3" type="veh_passenger"/>
    <trip id="veh25" depart="19.45" departLane="best" from="-490505847#2" to="-29283804" type="veh_passenger"/>
    <trip id="veh26" depart="20.23" departLane="best" departSpeed="max" from="-30808293" to="660525596#1-AddedOnRampEdge" type="veh_passenger"/>
    <trip id="veh27" depart="21.01" departLane="best" from="234769719#3" to="283151445#5" type="veh_passenger"/>
    <trip id="veh28" depart="21.79" departLane="best" departSpeed="max" from="-28051216#2" to="29168916#4" type="veh_passenger"/>
    <trip id="veh29" depart="22.57" departLane="best" from="-27077501#1" to="141131387#13" type="veh_passenger"/>
    <trip id="veh30" depart="23.35" departLane="best" from="85227239#0" to="286516236#2" type="veh_passenger"/>
    <trip id="veh31" depart="24.12" departLane="best" from="154205808#0" to="29050366" type="veh_passenger"/>
    <trip id="veh32" depart="24.90" departLane="best" from="34356770#2" to="30808893" type="veh_passenger"/>
    <trip id="veh33" depart="25.68" departLane="best" departSpeed="max" from="-29122390" to="-141649684#5" type="veh_passenger"/>
    <trip id="veh34" depart="26.46" departLane="best" departSpeed="max" from="-35840587" to="-396780636" type="veh_passenger"/>
    <trip id="veh35" depart="27.24" departLane="best" from="-29100279#5" to="74443096#0" type="veh_passenger"/>
    <trip id="veh36" depart="28.02" departLane="best" departSpeed="max" from="396780475" to="-77909682#0" type="veh_passenger"/>
    <trip id="veh37" depart="28.79" departLane="best" departSpeed="max" from="255709271#0" to="141649683#1" type="veh_passenger"/>
    <trip id="veh38" depart="29.57" departLane="best" from="45818016#0" to="144146308#2" type="veh_passenger"/>
    <trip id="veh39" depart="30.35" departLane="best" from="-30808186#0" to="-34707117#0" type="veh_passenger"/>
    <trip id="veh40" depart="31.13" departLane="best" from="155842253#9" to="-382939571" type="veh_passenger"/>
    <trip id="veh41" depart="31.91" departLane="best" from="165309538#0" to="45822083#4" type="veh_passenger"/>
    <trip id="veh42" depart="32.68" departLane="best" from="-79512481#1" to="-30630439#15" type="veh_passenger"/>
    <trip id="veh43" depart="33.46" departLane="best" from="87588820#0" to="166651255" type="veh_passenger"/>
    <trip id="veh44" depart="34.24" departLane="best" from="-147219303#0" to="-142433091#1" type="veh_passenger"/>
    <trip id="veh46" depart="35.80" departLane="best" from="29472346#0" to="142433090#2" type="veh_passenger"/>
    <trip id="veh47" depart="36.58" departLane="best" from="-142434704#2" to="141132235#5" type="veh_passenger"/>
    <trip id="veh48" depart="37.35" departLane="best" from="86463917#1" to="190795699#0" type="veh_passenger"/>
    <trip id="veh49" depart="38.13" departLane="best" from="78500211#1" to="40593201#1" type="veh_passenger"/>
    <trip id="veh50" depart="38.91" departLane="best" departSpeed="max" from="-119558193#3" to="29122390" type="veh_passenger"/>
    <trip id="veh51" depart="39.69" departLane="best" from="285322080#1" to="195556406#3" type="veh_passenger"/>
    <trip id="veh52" depart="40.47" departLane="best" departSpeed="max" from="-30808293" to="287019450#0" type="veh_passenger"/>
    <trip id="veh53" depart="41.24" departLane="best" departSpeed="max" from="-168906063#2" to="142434753#1" type="veh_passenger"/>
    <trip id="veh54" depart="42.02" departLane="best" from="138211334#0" to="75600078#0" type="veh_passenger"/>
    <trip id="veh55" depart="42.80" departLane="best" from="396780474#0" to="-38685577#5" type="veh_passenger"/>
    <trip id="veh56" depart="43.58" departLane="best" from="142151460#1" to="-29100278#0" type="veh_passenger"/>
    <trip id="veh57" depart="44.36" departLane="best" from="45767123#2" to="414806136#0" type="veh_passenger"/>
    <trip id="veh58" depart="45.14" departLane="best" from="-34098869#1" to="285819809" type="veh_passenger"/>
    <trip id="veh59" depart="45.91" departLane="best" from="195556406#3" to="-288373999#1" type="veh_passenger"/>
    <trip id="veh60" depart="46.69" departLane="best" from="29101238#1" to="195557698#9" type="veh_passenger"/>
    <trip id="veh61" depart="47.47" departLane="best" from="29165691#0" to="190920299#6" type="veh_passenger"/>
    <trip id="veh62" depart="48.25" departLane="best" from="-102998182#3" to="-8130796#0" type="veh_passenger"/>
    <trip id="veh63" depart="49.03" departLane="best" departSpeed="max" from="-136629195#1" to="638578234#1" type="veh_passenger"/>
    <trip id="veh64" depart="49.80" departLane="best" from="405207960#2" to="35469294#2" type="veh_passenger"/>
    <trip id="veh65" depart="50.58" departLane="best" departSpeed="max" from="-34750192" to="-142434705#6" type="veh_passenger"/>
    <trip id="veh66" depart="51.36" departLane="best" from="402118169#1" to="75383316#2-AddedOnRampEdge" type="veh_passenger"/>
    <trip id="veh67" depart="52.14" departLane="best" from="-146429792#7" to="156447919" type="veh_passenger"/>
    <trip id="veh68" depart="52.92" departLane="best" from="-142536124#0" to="299228406#5" type="veh_passenger"/>
    <trip id="veh69" depart="53.70" departLane="best" from="29101306#1" to="-220049339#3" type="veh_passenger"/>
    <trip id="veh70" depart="54.47" departLane="best" from="141617402#2" to="200051454" type="veh_passenger"/>
    <trip id="veh71" depart="55.25" departLane="best" from="-30808186#5" to="420819109" type="veh_passenger"/>
    <trip id="veh72" depart="56.03" departLane="best" from="104771384#5" to="-29318628" type="veh_passenger"/>
    <trip id="veh73" depart="56.81" departLane="best" from="146429792#13" to="29174694#2" type="veh_passenger"/>
    <trip id="veh74" depart="57.59" departLane="best" from="-29098540#3" to="-677911604#1" type="veh_passenger"/>
    <trip id="veh75" depart="58.36" departLane="best" from="85685708" to="288364241#1" type="veh_passenger"/>
    <trip id="veh76" depart="59.14" departLane="best" from="129120435#1" to="171841229" type="veh_passenger"/>
    <trip id="veh77" depart="59.92" departLane="best" from="-188462275#0" to="-311274714#2" type="veh_passenger"/>
    <trip id="veh79" depart="61.48" departLane="best" from="-29122394" to="-30630439#7" type="veh_passenger"/>
    <trip id="veh80" depart="62.26" departLane="best" from="-142702802#2" to="285567736#0" type="veh_passenger"/>
    <trip id="veh81" depart="63.03" departLane="best" departSpeed="max" from="-29122390" to="490505837#1" type="veh_passenger"/>
    <trip id="veh82" depart="63.81" departLane="best" from="35842462#4" to="-142952856#2" type="veh_passenger"/>
    <trip id="veh83" depart="64.59" departLane="best" from="-29228725#0" to="28975765#1" type="veh_passenger"/>
    <trip id="veh84" depart="65.37" departLane="best" from="-29100579#3" to="-233263145#0" type="veh_passenger"/>
    <trip id="veh85" depart="66.15" departLane="best" from="61732354#1" to="219712529#2" type="veh_passenger"/>
    <trip id="veh86" depart="66.93" departLane="best" from="141611528#1" to="327950921#0" type="veh_passenger"/>
    <trip id="veh87" depart="67.70" departLane="best" from="301743807#6" to="-29101360#1" type="veh_passenger"/>
    <trip id="veh88" depart="68.48" departLane="best" from="-154205803" to="142434703#15" type="veh_passenger"/>
    <trip id="veh89" depart="69.26" departLane="best" from="105154958#1" to="147219299#1" type="veh_passenger"/>
    <trip id="veh90" depart="70.04" departLane="best" from="29017325" to="29017553#8" type="veh_passenger"/>
    <trip id="veh91" depart="70.82" departLane="best" from="82978200#4" to="-166651258#0" type="veh_passenger"/>
    <trip id="veh92" depart="71.59" departLane="best" from="-80624955#1" to="105877512" type="veh_passenger"/>
    <trip id="veh93" depart="72.37" departLane="best" from="35842854#1" to="-34925392" type="veh_passenger"/>
    <trip id="veh94" depart="73.15" departLane="best" from="-29017556#1" to="142951294#1" type="veh_passenger"/>
    <trip id="veh95" depart="73.93" departLane="best" from="104714371#2-AddedOnRampEdge" to="-43635120#1" type="veh_passenger"/>
    <trip id="veh96" depart="74.71" departLane="best" from="-29285396#6" to="60500750" type="veh_passenger"/>
    <trip id="veh97" depart="75.49" departLane="best" departSpeed="max" from="129728143" to="410098318#1" type="veh_passenger"/>
    <trip id="veh98" depart="76.26" departLane="best" from="147448507#1" to="-142433435#0" type="veh_passenger"/>
    <trip id="veh99" depart="77.04" departLane="best" from="97560172#0" to="35840976#1" type="veh_passenger"/>
    <trip id="veh100" depart="77.82" departLane="best" from="77909682#2" to="619988348#1" type="veh_passenger"/>
    <trip id="veh101" depart="78.60" departLane="best" from="34750586#0" to="-29045630#2" type="veh_passenger"/>
    <trip id="veh103" depart="80.15" departLane="best" departSpeed="max" from="-80323821" to="-142434707#3" type="veh_passenger"/>
    <trip id="veh104" depart="80.93" departLane="best" departSpeed="max" from="-58873120" to="85227237#0" type="veh_passenger"/>
    <trip id="veh105" depart="81.71" departLane="best" from="-30808186#6" to="326942554#1" type="veh_passenger"/>
    <trip id="veh106" depart="82.49" departLane="best" from="138981929" to="142433093#13" type="veh_passenger"/>
    <trip id="veh107" depart="83.27" departLane="best" from="75383316#2" to="95705943#2" type="veh_passenger"/>
    <trip id="veh108" depart="84.05" departLane="best" from="154205803" to="29122382#0" type="veh_passenger"/>
    <trip id="veh109" depart="84.82" departLane="best" departSpeed="max" from="-221409103" to="-51249184#5" type="veh_passenger"/>
    <trip id="veh110" depart="85.60" departLane="best" from="77909681#0" to="222945409" type="veh_passenger"/>
    <trip id="veh111" depart="86.38" departLane="best" from="147019281" to="29310523#5" type="veh_passenger"/>
    <trip id="veh112" depart="87.16" departLane="best" departSpeed="max" from="-142433434#3" to="234769722" type="veh_passenger"/>
    <trip id="veh113" depart="87.94" departLane="best" from="142371951#1" to="382468352" type="veh_passenger"/>
    <trip id="veh114" depart="88.71" departLane="best" departSpeed="max" from="-233257327#3" to="78360670#9" type="veh_passenger"/>
    <trip id="veh115" depart="89.49" departLane="best" from="-144123055#2" to="-29101235" type="veh_passenger"/>
    <trip id="veh116" depart="90.27" departLane="best" from="181660194#4" to="29023814" type="veh_passenger"/>
    <trip id="veh117" depart="91.05" departLane="best" from="-29164927#2" to="-200052131#0" type="veh_passenger"/>
    <trip id="veh118" depart="91.83" departLane="best" from="181317477#0" to="285309727" type="veh_passenger"/>
    <trip id="veh119" depart="92.61" departLane="best" from="103002629#7" to="234769719#3" type="veh_passenger"/>
    <trip id="veh120" depart="93.38" departLane="best" from="142703061#2" to="655300807#1" type="veh_passenger"/>
    <trip id="veh121" depart="94.16" departLane="best" from="-29098864#6" to="29101367#4" type="veh_passenger"/>
    <trip id="veh122" depart="94.94" departLane="best" from="-29228798#7" to="141649683#3" type="veh_passenger"/>
    <trip id="veh123" depart="95.72" departLane="best" from="283151446" to="-56483591#1" type="veh_passenger"/>
    <trip id="veh125" depart="97.27" departLane="best" from="-142704922#0" to="144128682#4" type="veh_passenger"/>
    <trip id="veh126" depart="98.05" departLane="best" from="95705943#0" to="97560172#1" type="veh_passenger"/>
    <trip id="veh127" depart="98.83" departLane="best" from="-142705151#6" to="-29546864" type="veh_passenger"/>
    <trip id="veh128" depart="99.61" departLane="best" from="-30808186#6" to="64827339#0" type="veh_passenger"/>
    <trip id="veh129" depart="100.39" departLane="best" from="40522149#3-AddedOffRampEdge" to="43921538" type="veh_passenger"/>
    <trip id="veh130" depart="101.17" departLane="best" from="-490505837#1" to="-29017531#1" type="veh_passenger"/>
    <trip id="veh131" depart="101.94" departLane="best" from="34064527#1" to="29100670" type="veh_passenger"/>
    <trip id="veh132" depart="102.72" departLane="best" from="195589985" to="85227239#3" type="veh_passenger"/>
    <trip id="veh133" depart="103.50" departLane="best" from="241116403#0" to="-105460028" type="veh_passenger"/>
    <trip id="veh134" depart="104.28" departLane="best" from="311274712#7" to="-537744708#4" type="veh_passenger"/>
    <trip id="veh135" depart="105.06" departLane="best" departSpeed="max" from="27269554#0" to="66892731#0" type="veh_passenger"/>
    <trip id="veh136" depart="105.84" departLane="best" from="-197649748" to="-196159506#2" type="veh_passenger"/>
    <trip id="veh137" depart="106.61" departLane="best" from="-166102078#1" to="211193689" type="veh_passenger"/>
    <trip id="veh138" depart="107.39" departLane="best" from="-317621517" to="28052083" type="veh_passenger"/>
    <trip id="veh139" depart="108.17" departLane="best" from="288373996#0" to="-29228798#7" type="veh_passenger"/>
    <trip id="veh140" depart="108.95" departLane="best" from="219114416#11" to="-389722334" type="veh_passenger"/>
    <trip id="veh141" depart="109.73" departLane="best" from="141652208#3" to="490505837#0" type="veh_passenger"/>
    <trip id="veh142" depart="110.50" departLane="best" from="34706332#0" to="-155842253#9" type="veh_passenger"/>
    <trip id="veh143" depart="111.28" departLane="best" from="105154958#0" to="-43633787" type="veh_passenger"/>
    <trip id="veh144" depart="112.06" departLane="best" from="-104714368#4" to="30808186#0" type="veh_passenger"/>
    <trip id="veh145" depart="112.84" departLane="best" from="219154275" to="-372867967" type="veh_passenger"/>
    <trip id="veh146" depart="113.62" departLane="best" departSpeed="max" from="29050340" to="210580629#0" type="veh_passenger"/>
    <trip id="veh147" depart="114.40" departLane="best" from="-142950014#5" to="44055337#3" type="veh_passenger"/>
    <trip id="veh148" depart="115.17" departLane="best" from="44056115#3" to="197452781" type="veh_passenger"/>
    <trip id="veh149" depart="115.95" departLane="best" from="34064757#1" to="234769716" type="veh_passenger"/>
    <trip id="veh150" depart="116.73" departLane="best" from="-220049339#0" to="-219712529#2" type="veh_passenger"/>
    <trip id="veh151" depart="117.51" departLane="best" departSpeed="max" from="-34750238" to="45822090#4" type="veh_passenger"/>
    <trip id="veh153" depart="119.06" departLane="best" departSpeed="max" from="43635122#0" to="-29283808#2" type="veh_passenger"/>
    <trip id="veh154" depart="119.84" departLane="best" from="-29285396#3" to="-177270991" type="veh_passenger"/>
    <trip id="veh155" depart="120.62" departLane="best" departSpeed="max" from="29168997" to="44055341" type="veh_passenger"/>
    <trip id="veh156" depart="121.40" departLane="best" from="-81178289" to="285325484" type="veh_passenger"/>
    <trip id="veh157" depart="122.18" departLane="best" departSpeed="max" from="-221409103" to="641560625" type="veh_passenger"/>
    <trip id="veh158" depart="122.96" departLane="best" from="35867156#6" to="81446606#1" type="veh_passenger"/>
    <trip id="veh159" depart="123.73" departLane="best" from="30630439#15" to="43998115#3" type="veh_passenger"/>
    <trip id="veh160" depart="124.51" departLane="best" from="-141053205#1" to="29261891#1" type="veh_passenger"/>
    <trip id="veh161" depart="125.29" departLane="best" departSpeed="max" from="-374055370" to="641560626#1" type="veh_passenger"/>
    <trip id="veh162" depart="126.07" departLane="best" from="299228406#5" to="41244102" type="veh_passenger"/>
    <trip id="veh163" depart="126.85" departLane="best" from="30630439#11" to="-396780474#1" type="veh_passenger"/>
    <trip id="veh164" depart="127.62" departLane="best" from="29283440#1" to="-191623993#4" type="veh_passenger"/>
    <trip id="veh165" depart="128.40" departLane="best" from="38685577#6" to="405207960#1" type="veh_passenger"/>
    <trip id="veh166" depart="129.18" departLane="best" departSpeed="max" from="-29101324#3" to="34705967#1" type="veh_passenger"/>
    <trip id="veh169" depart="131.52" departLane="best" from="-140270620#4" to="-29122387" type="veh_passenger"/>
    <trip id="veh170" depart="132.29" departLane="best" from="-364140392#0" to="41244105" type="veh_passenger"/>
    <trip id="veh171" depart="133.07" departLane="best" from="77046832#0" to="-43635120#5" type="veh_passenger"/>
    <trip id="veh172" depart="133.85" departLane="best" from="220027131#1" to="141649687#3" type="veh_passenger"/>
    <trip id="veh173" depart="134.63" departLane="best" from="81361654" to="195556406#1" type="veh_passenger"/>
    <trip id="veh174" depart="135.41" departLane="best" from="638578234#0" to="-196159506#2" type="veh_passenger"/>
    <trip id="veh175" depart="136.18" departLane="best" from="78360670#7" to="-29100278#0" type="veh_passenger"/>
    <trip id="veh176" depart="136.96" departLane="best" from="75600077#2" to="-39267736#1" type="veh_passenger"/>
    <trip id="veh177" depart="137.74" departLane="best" departSpeed="max" from="-166651255" to="142434718" type="veh_passenger"/>
    <trip id="veh178" depart="138.52" departLane="best" departSpeed="max" from="29002138#0" to="-75805176#4" type="veh_passenger"/>
    <trip id="veh180" depart="140.08" departLane="best" from="-642203004#3" to="221409038#7" type="veh_passenger"/>
    <trip id="veh181" depart="140.85" departLane="best" from="-293742771#1" to="29101240#1" type="veh_passenger"/>
    <trip id="veh182" depart="141.63" departLane="best" from="-103002629#6" to="61733858#0" type="veh_passenger"/>
    <trip id="veh183" depart="142.41" departLane="best" departSpeed="max" from="144340173" to="29122387" type="veh_passenger"/>
    <trip id="veh184" depart="143.19" departLane="best" departSpeed="max" from="29050370" to="29017533#1" type="veh_passenger"/>
    <trip id="veh185" depart="143.97" departLane="best" departSpeed="max" from="-45822081" to="-142952854#2" type="veh_passenger"/>
    <trip id="veh186" depart="144.75" departLane="best" departSpeed="max" from="27270305#0" to="-98710904#1" type="veh_passenger"/>
    <trip id="veh187" depart="145.52" departLane="best" from="-35037128#0" to="364138911#0" type="veh_passenger"/>
    <trip id="veh188" depart="146.30" departLane="best" from="288528442" to="-58872759#0" type="veh_passenger"/>
    <trip id="veh189" depart="147.08" departLane="best" departSpeed="max" from="-34750276" to="141802273#4" type="veh_passenger"/>
    <trip id="veh190" depart="147.86" departLane="best" from="-80605578#9" to="-493404793#0" type="veh_passenger"/>
    <trip id="veh191" depart="148.64" departLane="best" from="-195556406#4" to="142151460#2" type="veh_passenger"/>
    <trip id="veh192" depart="149.41" departLane="best" from="64591917" to="29024146" type="veh_passenger"/>
    <trip id="veh193" depart="150.19" departLane="best" from="44044344#5" to="285218586#0" type="veh_passenger"/>
    <trip id="veh194" depart="150.97" departLane="best" departSpeed="max" from="-34103105" to="198171954#3" type="veh_passenger"/>
    <trip id="veh196" depart="152.53" departLane="best" from="112368489#0" to="225572184" type="veh_passenger"/>
    <trip id="veh197" depart="153.31" departLane="best" from="249238981#0" to="147200943#1" type="veh_passenger"/>
    <trip id="veh199" depart="154.86" departLane="best" departSpeed="max" from="141611529" to="470234231" type="veh_passenger"/>
    <trip id="veh201" depart="156.42" departLane="best" from="-146429792#11" to="169982176" type="veh_passenger"/>
    <trip id="veh202" depart="157.20" departLane="best" departSpeed="max" from="218917186#0" to="104714374#3" type="veh_passenger"/>
    <trip id="veh203" depart="157.97" departLane="best" from="31255872#1" to="29635542#4" type="veh_passenger"/>
    <trip id="veh204" depart="158.75" departLane="best" from="283171861" to="-311274714#1" type="veh_passenger"/>
    <trip id="veh205" depart="159.53" departLane="best" from="-29093055#0" to="-141132234#1" type="veh_passenger"/>
    <trip id="veh206" depart="160.31" departLane="best" from="-292732642#6" to="154070552#0" type="veh_passenger"/>
    <trip id="veh207" depart="161.09" departLane="best" departSpeed="max" from="34925393#0" to="-144117494" type="veh_passenger"/>
    <trip id="veh208" depart="161.87" departLane="best" from="-86463917#3" to="285567734" type="veh_passenger"/>
    <trip id="veh209" depart="162.64" departLane="best" departSpeed="max" from="-29029224#6" to="29099530#1" type="veh_passenger"/>
    <trip id="veh210" depart="163.42" departLane="best" from="141838217#0" to="-34098869#1" type="veh_passenger"/>
    <trip id="veh211" depart="164.20" departLane="best" from="265029744#1" to="-104771384#5" type="veh_passenger"/>
    <trip id="veh212" depart="164.98" departLane="best" from="29098865#7" to="306488504#2" type="veh_passenger"/>
    <trip id="veh213" depart="165.76" departLane="best" from="-163286030" to="142433434#2" type="veh_passenger"/>
    <trip id="veh214" depart="166.53" departLane="best" departSpeed="max" from="-285309727" to="77909681#0" type="veh_passenger"/>
    <trip id="veh215" depart="167.31" departLane="best" from="142435021#4" to="-142433434#2" type="veh_passenger"/>
    <trip id="veh216" depart="168.09" departLane="best" from="-29283808#5" to="364138911#2" type="veh_passenger"/>
    <trip id="veh217" depart="168.87" departLane="best" from="140270620#4" to="34083005#3" type="veh_passenger"/>
    <trip id="veh218" depart="169.65" departLane="best" from="280178688" to="85227239#5" type="veh_passenger"/>
    <trip id="veh219" depart="170.43" departLane="best" from="181660562#4" to="75534955#0" type="veh_passenger"/>
    <trip id="veh220" depart="171.20" departLane="best" from="41244131" to="283171871#1" type="veh_passenger"/>
    <trip id="veh222" depart="172.76" departLane="best" from="34064049#9" to="198171954#3" type="veh_passenger"/>
    <trip id="veh223" depart="173.54" departLane="best" departSpeed="max" from="43635120#0" to="29285397" type="veh_passenger"/>
    <trip id="veh224" depart="174.32" departLane="best" from="141617401" to="-35867156#4" type="veh_passenger"/>
    <trip id="veh225" depart="175.09" departLane="best" from="-29283440#4" to="285819807" type="veh_passenger"/>
    <trip id="veh226" depart="175.87" departLane="best" from="29101306#1" to="181660194#0" type="veh_passenger"/>
    <trip id="veh227" depart="176.65" departLane="best" from="218845618#0" to="-420531566#0" type="veh_passenger"/>
    <trip id="veh228" depart="177.43" departLane="best" from="-311374189#0" to="-80624955#0" type="veh_passenger"/>
    <trip id="veh229" depart="178.21" departLane="best" from="146655280#0" to="-27220625#4" type="veh_passenger"/>
    <trip id="veh230" depart="178.99" departLane="best" from="-29123229#3" to="29098865#4" type="veh_passenger"/>
    <trip id="veh231" depart="179.76" departLane="best" from="288363962#1" to="-142703061#1" type="veh_passenger"/>
    <trip id="veh232" depart="180.54" departLane="best" departSpeed="max" from="-82649620" to="196365000#1" type="veh_passenger"/>
    <trip id="veh233" depart="181.32" departLane="best" departSpeed="max" from="-98318999" to="-29283437#1" type="veh_passenger"/>
    <trip id="veh234" depart="182.10" departLane="best" departSpeed="max" from="104427668" to="487003001" type="veh_passenger"/>
    <trip id="veh235" depart="182.88" departLane="best" from="165309537" to="29099524#2" type="veh_passenger"/>
    <trip id="veh236" depart="183.66" departLane="best" departSpeed="max" from="35840582" to="301887916#1" type="veh_passenger"/>
    <trip id="veh237" depart="184.43" departLane="best" departSpeed="max" from="-60500750" to="-105154958#0" type="veh_passenger"/>
    <trip id="veh238" depart="185.21" departLane="best" departSpeed="max" from="-43921541" to="299228400#4" type="veh_passenger"/>
    <trip id="veh239" depart="185.99" departLane="best" from="349563148#5" to="75600077#7" type="veh_passenger"/>
    <trip id="veh240" depart="186.77" departLane="best" from="103002629#5" to="29310523#5" type="veh_passenger"/>
    <trip id="veh241" depart="187.55" departLane="best" from="147219299#0" to="28051216#2" type="veh_passenger"/>
    <trip id="veh242" depart="188.32" departLane="best" from="-29101305#3" to="-30630439#16" type="veh_passenger"/>
    <trip id="veh243" depart="189.10" departLane="best" from="129118788#1" to="-141617414#1" type="veh_passenger"/>
    <trip id="veh244" depart="189.88" departLane="best" from="-40200619#1" to="29029224#0" type="veh_passenger"/>
    <trip id="veh245" depart="190.66" departLane="best" from="-81177659#0" to="-29029224#4" type="veh_passenger"/>
    <trip id="veh246" depart="191.44" departLane="best" from="141137068-AddedOnRampEdge" to="-219712529#4" type="veh_passenger"/>
    <trip id="veh247" depart="192.22" departLane="best" from="210637688#2" to="-141576182" type="veh_passenger"/>
    <trip id="veh248" depart="192.99" departLane="best" from="-77909681#2" to="219114417#0" type="veh_passenger"/>
    <trip id="veh249" depart="193.77" departLane="best" from="-141131387#10" to="288357118#1" type="veh_passenger"/>
    <trip id="veh250" depart="194.55" departLane="best" departSpeed="max" from="-198358354" to="146655281" type="veh_passenger"/>
    <trip id="veh251" depart="195.33" departLane="best" departSpeed="max" from="-141842747#1" to="141131387#13" type="veh_passenger"/>
    <trip id="veh252" depart="196.11" departLane="best" from="-29100291" to="-84963126#1" type="veh_passenger"/>
    <trip id="veh253" depart="196.88" departLane="best" departSpeed="max" from="29101221" to="141131387#13" type="veh_passenger"/>
    <trip id="veh254" depart="197.66" departLane="best" from="29099524#0" to="35839778#0" type="veh_passenger"/>
    <trip id="veh255" depart="198.44" departLane="best" departSpeed="max" from="-29285401" to="-147219302" type="veh_passenger"/>
    <trip id="veh256" depart="199.22" departLane="best" departSpeed="max" from="-136629195#1" to="195557698#9" type="veh_passenger"/>
    <trip id="veh257" depart="200.00" departLane="best" from="98710904#1" to="129015682" type="veh_passenger"/>
    <trip id="veh258" depart="200.78" departLane="best" from="234769725#1" to="31778554#0" type="veh_passenger"/>
    <trip id="veh259" depart="201.55" departLane="best" from="234796329#2" to="299228400#6" type="veh_passenger"/>
    <trip id="veh260" depart="202.33" departLane="best" departSpeed="max" from="66310463" to="-29156679#6" type="veh_passenger"/>
    <trip id="veh261" depart="203.11" departLane="best" departSpeed="max" from="-136646672#1" to="-288373998#0" type="veh_passenger"/>
    <trip id="veh262" depart="203.89" departLane="best" from="-195556404" to="29017531#1" type="veh_passenger"/>
    <trip id="veh263" depart="204.67" departLane="best" from="156444015" to="-301887916#1" type="veh_passenger"/>