<?xml version="1.0" encoding="UTF-8"?>

<!-- generated on Mon May  6 09:46:32 2019 by Eclipse SUMO duarouter Version 1.2.0
<configuration xmlns:xsi="http://www.w3.org/2001/XMLSchema-instance" xsi:noNamespaceSchemaLocation="http://sumo.dlr.de/xsd/duarouterConfiguration.xsd">

    <input>
        <net-file value="/home/bruno/Downloads/sumo-1.1.0/tools/2019-05-06-09-46-18/osm.net.xml"/>
        <route-files value="/home/bruno/Downloads/sumo-1.1.0/tools/2019-05-06-09-46-18/osm.passenger.trips.xml"/>
    </input>

    <output>
        <output-file value="/home/bruno/Downloads/sumo-1.1.0/tools/2019-05-06-09-46-18/osm.passenger.rou.xml"/>
        <alternatives-output value="/home/bruno/Downloads/sumo-1.1.0/tools/2019-05-06-09-46-18/osm.passenger.rou.alt.xml"/>
    </output>

    <time>
        <begin value="0"/>
        <end value="3600.0"/>
    </time>

    <report>
        <no-warnings value="true"/>
        <ignore-errors value="true"/>
        <no-step-log value="true"/>
    </report>

</configuration>
-->

<routes xmlns:xsi="http://www.w3.org/2001/XMLSchema-instance" xsi:noNamespaceSchemaLocation="http://sumo.dlr.de/xsd/routes_file.xsd">
    <vType id="veh_passenger" vClass="passenger"/>
    <vehicle id="veh0" type="veh_passenger" depart="0.00" departLane="best">
        <route edges="26119992#8 26119992#9 26119992#10 26119992#11 36748085#0 -207634523#0"/>
    </vehicle>
    <vehicle id="veh1" type="veh_passenger" depart="4.61" departLane="best">
        <route edges="112465240#3 -226624856 210328147 26207695#0 14333888#6 190128487#3 190128487#4 190128487#5 26119900#0 26119900#1 26119880 26119880-AddedOffRampEdge 233055818 95841157 434860177#0 434860177#1 156211618#0 167487363#0 167487363#1 167487363#2 36748084#0 36748084#2 482296561 212706762#0 207634492 -207634492 482296563#0 207634523#0 482261339#0 207634505#0 304680071 482264026#0 482264026#1 482240913 292119381 128363658#0 -128363658#0 128363659#0"/>
    </vehicle>
    <vehicle id="veh2" type="veh_passenger" depart="9.22" departLane="best">
        <route edges="34607518#7 34607518#8 14326558#3 14326558#4 608420973 608420971#1 434872534#2 26119900#0 26119900#1 26119880 26119880-AddedOffRampEdge 124539825 28193886 156211619 13801868#1 258853581#0 258853581#3 258853581#4 -252518644#2 -252518644#1 -252518642#1 -252518642#0 262474849#1 262474849#2 262474849#4 262474849#5 262474849#6 262474849#7 262474849#8 262474849#9 332479850#0"/>
    </vehicle>
    <vehicle id="veh3" type="veh_passenger" depart="13.83" departLane="best">
        <route edges="452076637#3 13277357#0 13277357#1 13277357#2 13277357#3 13277357#4 39894728#0 39894728#1 39894728#2 39894728#3 -262474849#10 -262474849#8 -262474849#7 -262474849#6 -262474849#5 -262474849#4 -262474849#2"/>
    </vehicle>
    <vehicle id="veh4" type="veh_passenger" depart="18.44" departLane="best">
        <route edges="14333465#1 14333465#2 215194131#1 39668434#0 39668434#1 39668434#2 14326464#8 14326558#0 14326558#1 14326558#2 304682487#2 216891255#2 349620091 -304684297#1 -304684297#0 -210365858#4 -210365858#3 -210365858#2 -210365858#1 -210365858#0"/>
    </vehicle>
    <vehicle id="veh5" type="veh_passenger" depart="23.06" departLane="best">
        <route edges="-39888370 -39888368#3 -262474849#2 -262474849#1 -262474849#0 252518642#1 252518644#0 252518644#2 13802005 259888928#0 259888928#2 -51230332#0 28193881 608421700#0 608421700#1 608421700#2 608421700#2-AddedOffRampEdge 233098267"/>
    </vehicle>
    <vehicle id="veh6" type="veh_passenger" depart="27.67" departLane="best">
        <route edges="-146190183#0 -39888045#1 -262474849#8 -262474849#7 -262474849#6 -262474849#5 -262474849#4 -262474849#2 -262474849#1 -262474849#0 252518642#1 252518644#0 252518644#2 13802005 259888928#0 259888928#2 14326493#0 14326493#2 14326493#3 14326493#4 211436103#0 14326464#2 14326464#3 14326464#4 14333465#1 14333465#2 215194131#1 8366901#0 8366901#1 124539828#1"/>
    </vehicle>
    <vehicle id="veh7" type="veh_passenger" depart="32.28" departLane="best">
        <route edges="262474849#1 -262474849#1 -262474849#0 252518642#1 252518644#0 252518644#2 13802005 259888928#0 259888928#2 -51230332#0 28193881 608421700#0 608421700#1 608421700#2 608421700#2-AddedOffRampEdge 608421700#3 595164142 28193886 156211619 13801868#1 258853581#0 258853581#3 258853581#4"/>
    </vehicle>
    <vehicle id="veh9" type="veh_passenger" depart="41.50" departLane="best">
        <route edges="39671211 39670508#0-AddedOnRampEdge 39670508#0 39670508#1 216159806#0 216159806#1 216159806#2 216159806#3 14326493#3 14326493#4 211436103#0 14326487#3 215301977#0 215301977#1 216969809#3 216969809#5 34683791 258853579#0 258853580#3 28193881 608421700#0 608421700#1 608421700#2 608421700#2-AddedOffRampEdge 608421700#3 595164142 28193886 156211619 13801868#1 258853581#0 258853581#3 258853581#4 -252518644#2 -252518644#1 -252518642#1 -252518642#0 262474849#1 262474849#2 262474849#4 262474849#5 262474849#6 262474849#7 262474849#8 262474849#9 332479850#0 332479850#1 332479850#2 332479850#3 332479850#4 -13277357#1 -13277357#0"/>
    </vehicle>
    <vehicle id="veh10" type="veh_passenger" depart="46.11" departLane="best">
        <route edges="13848688#1 482276568 482264025#0 482264025#1 128363661 -482261341 -482261338#1 -207634523#0 482296562 212706766#0 -482296560#1 -36748084#2 -36748084#0 167487364 448860910#0 448860910#1 -156211618#0 -434860177#1 -434860177#0 -386286210 13801868#0 13801868#1 258853581#0 258853581#3 258853581#4 13802005 259888928#0 259888928#2 14326493#0 14326493#2 14326493#3 14326493#4 211436103#0 14326464#2 14326464#3 14326464#4 14326464#6 14326464#7 14326464#8 14326558#0 14326558#1 14326558#2 14326558#3 14326558#4 608420973 448850568#0 448850570#1 448850570#2 448850570#3 448850570#6 448850570#7 448850570#8 448850570#9 220232893#0 220232893#1 220232893#2 239593895#0 239593895#1 434879926#0 434879926#1 434879926#2 434878401#0 434878401#1 -434878401#1"/>
    </vehicle>
    <vehicle id="veh11" type="veh_passenger" depart="50.72" departLane="best">
        <route edges="608420970#0 608420970#2 287648900 -287648900 167487357#0 167487357#1 14326572#0 14326572#1 14326572#2 14326572#3 60175941#0 60175941#2 60175941#3 60175941#5 60175941#7 112465240#1 112465240#2 112465240#3 -226624856 210328147 26207695#0 14333888#6"/>
    </vehicle>
    <vehicle id="veh13" type="veh_passenger" depart="59.94" departLane="best" departSpeed="max">
        <route edges="39896043 13848688#1 482276568 482264025#0 482264025#1 128363661 -482261341 -482261338#1 -207634523#0 482296562 212706766#0 -482296560#1 39865747 262616020#0 262616020#1 262616020#2 262616020#4 262579556#1"/>
    </vehicle>
    <vehicle id="veh15" type="veh_passenger" depart="69.17" departLane="best">
        <route edges="216969809#5 34683791 258853579#0 258853580#3 28193881 608421700#0 608421700#1 608421700#2 608421700#2-AddedOffRampEdge 233098267 595164143#1-AddedOnRampEdge 595164143#1 595164143#2 595164143#3 595164143#4 8367054"/>
    </vehicle>
    <vehicle id="veh17" type="veh_passenger" depart="78.39" departLane="best">
        <route edges="434878401#1 -434878401#1 -434878401#0 -434879926#2 -434879926#1 -434879926#0 -239593895#1 -239593895#0 -220232893#2 -220232893#1 -220232893#0 190128487#1 190128487#3 190128487#4 190128487#5 26119900#0 26119900#1 26119880 26119880-AddedOffRampEdge 124539825 28193886 156211619 13801868#1 258853581#0 258853581#3 258853581#4 -252518644#2 -252518644#1 -252518642#1 -252518642#0 262474849#1 262474849#2 262474849#4 262474849#5 262474849#6 262474849#7 262474849#8 262474849#9 332479850#0 332479850#1 332479850#2 332479850#3 332479850#4 -13277357#1 26119992#0 26119992#2 26119992#3 26119992#4 26119992#5 26119992#6 26119992#7 26119992#8"/>
    </vehicle>
    <vehicle id="veh18" type="veh_passenger" depart="83.00" departLane="best">
        <route edges="307804461#2 -307804461#2 -307804461#1 -307804461#0 448850570#1 448850570#2 448850570#3 448850570#6 448850570#7 448850570#8 448850570#9 190128487#1 190128487#3 190128487#4 190128487#5 26119900#0 26119900#1 26119880 26119880-AddedOffRampEdge 124539825 28193886 156211619 13801868#1 258853581#0 258853581#3 258853581#4 -252518644#2 -252518644#1 -252518642#1"/>
    </vehicle>
    <vehicle id="veh19" type="veh_passenger" depart="87.61" departLane="best" departSpeed="max">
        <route edges="-39896053 452076637#0 452076637#3 13277357#0 13277357#1 13277357#2 13277357#3 13277357#4 39894728#0 39894728#1 39894728#2 39894728#3 -262474849#10 -262474849#8 -262474849#7 -262474849#6 -262474849#5 -262474849#4 -262474849#2 -262474849#1 -262474849#0 252518642#1 252518644#0 252518644#2 13802005 259888928#0 259888928#2 14326493#0 14326493#2 14326493#3 14326493#4 211436103#0 14326464#2 14326464#3 14326464#4 14326464#6 14326464#7 14326464#8 14326558#0"/>
    </vehicle>
    <vehicle id="veh20" type="veh_passenger" depart="92.22" departLane="best">
        <route edges="-252518642#1 -252518642#0 -262474849#0 252518642#1 252518644#0 252518644#2 13802005 259888928#0 259888928#2 14326493#0 14326493#2 14326493#3 14326493#4 211436103#0 14326487#3 215301977#0 215301977#1 216969809#3 215331280#1 8367089#0 8367089#1 229802211 229818921 35203817#0 35203817#1 31060211#0 31060211#1 128825638#1 128825638#2"/>
    </vehicle>
    <vehicle id="veh21" type="veh_passenger" depart="96.83" departLane="best">
        <route edges="-26119992#3 -26119992#2 -26119992#0 13277357#1 13277357#2 13277357#3 13277357#4 39894728#0 39894728#1 39894728#2 39894728#3 -262474849#10 -262474849#8 -262474849#7 -262474849#6 -262474849#5 -262474849#4 -262474849#2 -262474849#1 -262474849#0 252518642#1 252518644#0 252518644#2 13802005 259888928#0 259888928#2 14326493#0 14326493#2 14326493#3 14326493#4 211436103#0 14326464#2 14326464#3 14326464#4 14326464#6 14326464#7"/>
    </vehicle>
    <vehicle id="veh22" type="veh_passenger" depart="101.44" departLane="best">
        <route edges="26119992#6 26119992#7 26119992#8 26119992#9 26119992#10 26119992#11 36748085#0 -207634523#0 482296562 212706766#0 -482296560#1 -36748084#2 -36748084#0 167487364"/>
    </vehicle>
    <vehicle id="veh23" type="veh_passenger" depart="106.05" departLane="best">
        <route edges="14326558#0 14326558#1 14326558#2 14326558#3 14326558#4 608420973 608420971#1 434872534#2 26119900#0 26119900#1 26119880 26119880-AddedOffRampEdge 233055818 95841157 434860177#0 434860177#1 156211618#0 167487363#0 167487363#1 167487363#2 36748084#0 36748084#2 482296561 212706762#0 207634492 -207634492 482296563#0 207634523#0 482261339#0 207634505#0 207634513 128363657"/>
    </vehicle>
    <vehicle id="veh24" type="veh_passenger" depart="110.67" departLane="best" departSpeed="max">
        <route edges="-96151239#3 -28193999#2 39888372#0 39888372#1 39888372#2 39888372#3 -39888368#5 -39888368#3 -262474849#2 -262474849#1 -262474849#0 252518642#1 252518644#0 252518644#2 13802005 259888928#0 259888928#2 14326493#0 14326493#2 14326493#3 14326493#4 211436103#0 14326464#2 14326464#3 14326464#4 14326464#6 14326464#7 14326464#8 14326558#0 14326558#1 14326558#2 14326558#3 14326558#4 608420973 608420971#1 434872534#2 434872534#4 434872534#5 60175590#0 60175590#1 60175590#2 60175590#3 38336628#0 38336628#1 38336628#2 38336628#4 38336628#5 13836129#0 13836129#2 14326572#0 14326572#1 14326572#2 14326572#3 60175941#0"/>
    </vehicle>
    <vehicle id="veh25" type="veh_passenger" depart="115.28" departLane="best" departSpeed="max">
        <route edges="26207794#0 26207794#1 578561126 374346173 14333500#0 14333500#1 14333500#2 14333500#3 14333500#4 14333500#5 14326558#0 14326558#1 14326558#2 14326558#3 14326558#4 608420973 608420971#1 434872534#2 26119900#0 26119900#1 26119880 26119880-AddedOffRampEdge 233055818 95841157 434860177#0 434860177#1 156211618#0 167487363#0 167487363#1 262945890#0"/>
    </vehicle>
    <vehicle id="veh26" type="veh_passenger" depart="119.89" departLane="best" departSpeed="max">
        <route edges="-386286205 386286206#1 -386286206#1 -386286206#0 -128825640#0 128825638#1 281224991 128825641#0 8367070#0 8367070#2 8367070#3 59525260#1 59525260#2 8367058#0 8367058#1 8367058#2 128823189#0 128823189#1 -434860177#1 -434860177#0 -386286210 13801868#0 13801868#1 258853581#0 258853581#3 258853581#4 13802005 259888928#0 259888928#2 14326493#0 14326493#2 14326493#3 14326493#4 211436103#0 14326464#2 14326464#3 14326464#4 14326464#6 14326464#7 14326464#8 14326558#0 14326558#1 14326558#2 14326558#3 14326558#4 608420973 608420971#1 434872534#2 434872534#4 434872534#5 60175590#0 60175590#1 60175590#2 60175590#3 38336628#0 38336628#1 38336628#2"/>
    </vehicle>
    <vehicle id="veh27" type="veh_passenger" depart="124.50" departLane="best" departSpeed="max">
        <route edges="-36748083#3 -262474849#4 -262474849#2 -262474849#1 -262474849#0 252518642#1 252518644#0 252518644#2 13802005 259888928#0 259888928#2 14326493#0 14326493#2 14326493#3 14326493#4 211436103#0 14326464#2 14326464#3 14326464#4 14333465#1 14333465#2 215194131#1 8366901#0 8366901#1 124539828#1 190128490 197464424#1"/>
    </vehicle>
    <vehicle id="veh28" type="veh_passenger" depart="129.11" departLane="best">
        <route edges="8367098#1 8367098#2 14326572#0 14326572#1 14326572#2 14326572#3 60175941#0 60175941#2 60175941#3 60175941#5 60175941#7 216972581#0 216972581#1 26119900#0 26119900#1 26119880 26119880-AddedOffRampEdge 233055818 95841157 434860177#0 434860177#1 156211618#0 167487363#0 167487363#1 167487363#2 36748084#0 36748084#2 482296561 212706762#0 207634492 -207634492 482296563#0 207634523#0 482261339#0 207634505#0 304680071 482264026#0 482264026#1 482240913 292119381"/>
    </vehicle>
    <vehicle id="veh29" type="veh_passenger" depart="133.72" departLane="best">
        <route edges="227888631#1 112465243#0 112465243#1 112465243#2 112465243#3 -239593895#1 -239593895#0 -220232893#2 -220232893#1 -220232893#0 190128487#1 190128487#3 190128487#4 190128487#5 26119900#0 26119900#1 26119880 26119880-AddedOffRampEdge 124539825 28193886 156211619 13801868#1 258853581#0 258853581#3 258853581#4 -252518644#2 -252518644#1 -252518642#1 -252518642#0 262474849#1 262474849#2 262474849#4 262474849#5 262474849#6 262474849#7 262474849#8 262474849#9 332479850#0 332479850#1 332479850#2 332479850#3 332479850#4"/>
    </vehicle>
    <vehicle id="veh30" type="veh_passenger" depart="138.33" departLane="best">
        <route edges="39895304#1 39895304#2 26119992#11 36748085#0 -207634523#0 482296562 212706766#0 -482296560#1 -36748084#2 -36748084#0 167487364 448860910#0 448860910#1 -156211618#0 -434860177#1 -434860177#0 -386286210 13801868#0 13801868#1 258853581#0 258853581#3 258853581#4 218020117 217628815 39670508#0-AddedOnRampEdge"/>
    </vehicle>
    <vehicle id="veh31" type="veh_passenger" depart="142.94" departLane="best" departSpeed="max">
        <route edges="-39896053 452076637#0 452076637#3 13277357#0 13277357#1 13277357#2 13277357#3 13277357#4 39894728#0 39894728#1 39894728#2 39894728#3 -262474849#10 -262474849#8 -262474849#7 -262474849#6 -262474849#5 -262474849#4 -262474849#2 -262474849#1 -262474849#0 252518642#1 252518644#0 252518644#2 13802005 259888928#0 259888928#2 14326493#0 14326493#2 14326493#3 14326493#4 211436103#0 14326464#2 14326464#3 14326464#4 14326464#6 14326464#7 14326464#8 14326558#0 14326558#1 14326558#2 304682487#2 216891255#2 349620091 -304684297#1 -304684297#0 -210365858#4 -210365858#3 -210365858#2"/>
    </vehicle>
    <vehicle id="veh33" type="veh_passenger" depart="152.17" departLane="best" departSpeed="max">
        <route edges="-39888043#1 -39888043#0 39888118 -262474849#6 -262474849#5 -262474849#4 -262474849#2 -262474849#1 -262474849#0 252518642#1 252518644#0 252518644#2 13802005 259888928#0 259888928#2 14326493#0 14326493#2 14326493#3 14326493#4 211436103#0 14326464#2 14326464#3 14326464#4 14326464#6 14326464#7 14326464#8 14326558#0 14326558#1 14326558#2 14326558#3 14326558#4 608420973 608420971#1 434872534#2 434872534#4 434872534#5 60175590#0 60175590#1 60175590#2 60175590#3 38336628#0 38336628#1 38336628#2 38336628#4 38336628#5 13836129#0 13836129#2 14326572#0 14326572#1 14326572#2 14326572#3 60175941#0 60175941#2 60175941#3"/>
    </vehicle>
    <vehicle id="veh35" type="veh_passenger" depart="161.39" departLane="best">
        <route edges="262474849#5 262474849#6 262474849#7 262474849#8 262474849#9 332479850#0 332479850#1 332479850#2 332479850#3 332479850#4 -13277357#1 26119992#0 26119992#2 26119992#3 26119992#4 26119992#5 26119992#6 26119992#7 26119992#8 26119992#9 26119992#10 26119992#11 36748085#0 -207634523#0 482296562 212706766#0 212706762#0 207634492"/>
    </vehicle>
    <vehicle id="veh36" type="veh_passenger" depart="166.00" departLane="best">
        <route edges="484592257#0 484592257#1 448850570#1 448850570#2 448850570#3 448850570#6 448850570#7 448850570#8 448850570#9 190128487#1 190128487#3 190128487#4 190128487#5 26119900#0 26119900#1 26119880 26119880-AddedOffRampEdge 124539825 28193886 156211619 13801868#1 258853581#0 258853581#3 258853581#4 218020117 217628815 39670508#0-AddedOnRampEdge 39670508#0 39670508#1 216159806#0 216159806#1"/>
    </vehicle>
    <vehicle id="veh37" type="veh_passenger" depart="170.61" departLane="best">
        <route edges="-8367089#1 -8367089#0 215331285#1 34683791 258853579#0 258853580#3 28193881 608421700#0 608421700#1 608421700#2 608421700#2-AddedOffRampEdge 608421700#3 595164142 28193886 156211619 13801868#1 258853581#0 258853581#3 258853581#4 -252518644#2 -252518644#1 -252518642#1 -252518642#0 262474849#1 262474849#2 262474849#4 262474849#5 262474849#6 262474849#7 262474849#8 262474849#9 332479850#0 332053082#0 332053082#1 332053082#2 332053082#3 13277357#4"/>
    </vehicle>
    <vehicle id="veh38" type="veh_passenger" depart="175.22" departLane="best">
        <route edges="229802211 229818921 128825637 374346169 229816562 -8367089#1 -8367089#0 215331285#1 34683791 258853579#0 258853580#3 51230332#0 14326493#0 14326493#2 14326493#3 14326493#4 211436103#0 14326464#2 14326464#3 14326464#4 14326464#6 14326464#7 14326464#8 14326558#0 14326558#1 14326558#2 14326558#3 14326558#4 608420973 608420971#1 434872534#2 434872534#4 434872534#5 60175590#0 60175590#1 60175590#2 60175590#3 38336628#0 38336628#1 38336628#2 38336628#4 38336628#5 13836129#0"/>
    </vehicle>
    <vehicle id="veh39" type="veh_passenger" depart="179.83" departLane="best">
        <route edges="255848372 39888372#6 39888372#7 39888372#8 262474849#8 262474849#9 332479850#0 332479850#1 332479850#2 332479850#3 332479850#4 -13277357#1 26119992#0 26119992#2 26119992#3 26119992#4 26119992#5 26119992#6 26119992#7 26119992#8 26119992#9 26119992#10 26119992#11 36748085#0 -207634523#0 482296562 212706766#0 -482296560#1 482296561"/>
    </vehicle>
    <vehicle id="veh40" type="veh_passenger" depart="184.44" departLane="best" departSpeed="max">
        <route edges="14327868#0 14327868#2 14327876 210851328#1 210851328#2 210851328#4 210851328#5 142214759#5 142214759#7 190128487#1 190128487#3 190128487#4 190128487#5 26119900#0 26119900#1 26119880 26119880-AddedOffRampEdge 233055818 95841157 434860177#0 434860177#1 156211618#0 167487363#0 167487363#1 167487363#2 36748084#0 36748084#2 482296561 212706762#0 207634492 -207634492 482296563#0 207634523#0 482261339#0 207634505#0 304680071 482264026#0 482264026#1 482240913 292119381 128363658#0 128363658#1"/>
    </vehicle>
    <vehicle id="veh43" type="veh_passenger" depart="198.28" departLane="best">
        <route edges="-26119992#9 -26119992#8 -26119992#7 -26119992#6 -26119992#5 -26119992#4 -26119992#3 -26119992#2 -26119992#0 13277357#1 13277357#2 13277357#3 13277357#4 13277357#5 12298717 28193999#0 28193999#1"/>
    </vehicle>
    <vehicle id="veh44" type="veh_passenger" depart="202.89" departLane="best" departSpeed="max">
        <route edges="39658536#0 39658536#1 -290230302 207724051#2 38336643 -434878401#2 -434878401#1 -434878401#0 -434879926#2 -434879926#1 -434879926#0 -239593895#1 -239593895#0 -220232893#2 -220232893#1 -220232893#0 190128487#1 190128487#3 190128487#4 190128487#5 26119900#0 34607518#6 34607518#7 34607518#8 304682487#2 216891255#2 349620091 -304684297#1 -304684297#0 -349620090#3 -349620090#2 14333733#0 14333733#1 400077009 210336697"/>
    </vehicle>
    <vehicle id="veh45" type="veh_passenger" depart="207.50" departLane="best" departSpeed="max">
        <route edges="-216891254#1 -643548708 -304684297#1 -304684297#0 349620089 -307804461#3 -307804461#2 -307804461#1 -307804461#0 448850570#1 448850570#2 448850570#3 448850570#6 448850570#7 448850570#8 448850570#9 220232893#0 220232893#1 220232893#2 239593895#0 239593895#1 434879926#0 434879926#1 434879926#2 206720845#0"/>
    </vehicle>
    <vehicle id="veh47" type="veh_passenger" depart="216.72" departLane="best">
        <route edges="608421700#2-AddedOffRampEdge 608421700#3 595164142 28193886 156211619 13801868#1 258853581#0 258853581#3 258853581#4 13802005 259888928#0 259888928#2 14326493#0 14326493#2 14326493#3 14326493#4 211436103#0 14326464#2 14326464#3 14326464#4 14326464#6 14326464#7 14326464#8 14326558#0 14326558#1 14326558#2 14326558#3 14326558#4 608420973 448850568#0 448850570#1 448850570#2 448850570#3 448850570#6 448850570#7 448850570#8 448850570#9 220232893#0 220232893#1 220232893#2 239593895#0 239593895#1 434879926#0 434879926#1 434879926#2"/>
    </vehicle>
    <vehicle id="veh50" type="veh_passenger" depart="230.55" departLane="best" departSpeed="max">
        <route edges="-96151239#3 -28193999#2 -28193999#0 -12298717 -13277357#5 -13277357#4 -13277357#3 -13277357#2 -13277357#1 26119992#0 26119992#2 26119992#3 26119992#4 26119992#5 26119992#6 26119992#7 26119992#8 26119992#9 26119992#10 26119992#11 36748085#0 482261339#0 207634505#0 304680071 482264026#0 482264026#1 482240913 292119381"/>
    </vehicle>
    <vehicle id="veh52" type="veh_passenger" depart="239.78" departLane="best">
        <route edges="167487364 448860910#0 448860910#1 -156211618#0 -434860177#1 -434860177#0 -386286210 13801868#0 13801868#1 258853581#0 258853581#3 258853581#4 13802005 259888928#0 259888928#2 14326493#0 14326493#2 14326493#3 14326493#4 211436103#0 14326464#2 14326464#3 14326464#4 14326464#6 14326464#7 14326464#8 14326558#0 14326558#1 14326558#2 14326558#3 14326558#4 608420973 608420971#1 434872534#2 434872534#4 434872534#5 60175590#0 60175590#1 60175590#2 60175590#3 38336628#0 38336628#1 38336628#2 38336628#4 38336628#5 608420970#0 608420970#2"/>
    </vehicle>
    <vehicle id="veh53" type="veh_passenger" depart="244.39" departLane="best">
        <route edges="448850568#0 448850570#1 448850570#2 448850570#3 448850570#6 448850570#7 448850570#8 448850570#9 190128487#1 190128487#3 190128487#4 190128487#5 434872534#4 434872534#5 60175590#0 60175590#1 60175590#2 60175590#3 38336628#0 38336628#1 38336628#2 38336628#4 38336628#5 13836129#0 13836129#2"/>
    </vehicle>
    <vehicle id="veh54" type="veh_passenger" depart="249.00" departLane="best">
        <route edges="210851328#2 210851328#4 210851328#5 142214759#5 142214759#7 190128487#1 190128487#3 190128487#4 190128487#5 26119900#0 26119900#1 215200349#0 215200349#1 124539828#1 190128490 26119844#0 26119844#1 26119844#2 216969809#3 215331280#1 8367089#0 8367089#1 -8367089#1"/>
    </vehicle>
    <vehicle id="veh56" type="veh_passenger" depart="258.22" departLane="best">
        <route edges="128363659#1 482240915#0 482240915#1 128363661 -482261341 -482261338#1 -207634523#0 482296562 212706766#0 -482296560#1 -36748084#2 -36748084#0 167487364 448860910#0 448860910#1 -156211618#0 -434860177#1 -434860177#0 -386286210 13801868#0 13801868#1 258853581#0 258853581#3 258853581#4 13802005 259888928#0 259888928#2 14326493#0 14326493#2 14326493#3 14326493#4 211436103#0 14326464#2 14326464#3 14326464#4 14326464#6 14326464#7 14326464#8 14326558#0 14326558#1 14326558#2 14326558#3 14326558#4 608420973 608420971#1 434872534#2 434872534#4 434872534#5 60175590#0 60175590#1 60175590#2 60175590#3 38336628#0 38336628#1 38336628#2 38336628#4 38336628#5 608420970#0 608420970#2 287648900"/>
    </vehicle>
    <vehicle id="veh57" type="veh_passenger" depart="262.83" departLane="best" departSpeed="max">
        <route edges="38336627#0 38336627#1 208580373#1 8367104#1 8367104#2 8367104#3 206720845#4 206720845#6 38336628#2 38336628#4 38336628#5 13836129#0 13836129#2 14326572#0 14326572#1 14326572#2 14326572#3 60175941#0 60175941#2 60175941#3 60175941#5 60175941#7 8366889#0 8366889#1 34607518#3 215200352#0 215200352#1 215200349#1 124539828#1 190128490 26119844#0 26119844#1 26119844#2 216969809#3 216969809#5 34683791 258853579#0"/>
    </vehicle>
    <vehicle id="veh58" type="veh_passenger" depart="267.44" departLane="best">
        <route edges="38336628#4 38336628#5 13836129#0 13836129#2 14326572#0 14326572#1 14326572#2 14326572#3 60175941#0 60175941#2 60175941#3 60175941#5 60175941#7 216972581#0 216972581#1 26119900#0 26119900#1 26119880 26119880-AddedOffRampEdge 124539825 28193886 156211619 13801868#1 258853581#0 258853581#3 258853581#4 -252518644#2 -252518644#1 -252518642#1 -252518642#0 262474849#1 262474849#2 262474849#4 262474849#5 262474849#6 262474849#7 262474849#8 39888045#1 146190183#0 146190183#1 146190183#2 256431162#1"/>
    </vehicle>
    <vehicle id="veh59" type="veh_passenger" depart="272.05" departLane="best">
        <route edges="-13277357#3 13277357#3 13277357#4 39894728#0 39894728#1 39894728#2 39894728#3 -262474849#10 -262474849#8 -262474849#7 -262474849#6 -262474849#5 -262474849#4 -262474849#2 -262474849#1 -262474849#0 252518642#1 252518644#0 252518644#2 13802005 259888928#0 259888928#2 14326493#0 14326493#2 14326493#3 14326493#4 211436103#0 14326464#2 14326464#3 14326464#4 14326464#6 14326464#7 14326464#8 14326558#0 14326558#1 14326558#2 14326558#3 14326558#4 608420973 608420971#1 434872534#2 434872534#4 434872534#5 60175590#0 60175590#1 60175590#2 60175590#3 38336628#0 38336628#1 38336628#2 38336628#4 38336628#5 13836129#0 13836129#2 14326572#0 14326572#1 14326572#2 14326572#3 60175223#0 60175223#2"/>
    </vehicle>
    <vehicle id="veh60" type="veh_passenger" depart="276.67" departLane="best">
        <route edges="448850570#2 448850570#3 448850570#6 448850570#7 448850570#8 448850570#9 190128487#1 190128487#3 190128487#4 190128487#5 26119900#0 26119900#1 26119880 26119880-AddedOffRampEdge 124539825 28193886 156211619 13801868#1 258853581#0 258853581#3 258853581#4 -252518644#2 -252518644#1 -252518642#1 -252518642#0 262474849#1 262474849#2 262474849#4 262474849#5 262474849#6 262474849#7 262474849#8 262474849#9 332479850#0 332479850#1 332479850#2 332479850#3 332479850#4 -13277357#1 -13277357#0 -452076637#3 -452076637#0 39896053"/>
    </vehicle>
    <vehicle id="veh61" type="veh_passenger" depart="281.28" departLane="best">
        <route edges="128825638#4 128825638#1 281224991 128825641#0 8367070#0 8367070#2 8367070#3 59525260#1 59525260#2 8367058#0 8367058#1 8367058#2 128823189#0 128823189#1 -434860177#1 -434860177#0 -386286210 13801868#0 13801868#1 258853581#0 258853581#3 258853581#4 -252518644#2 -252518644#1 -252518642#1 -252518642#0 262474849#1 262474849#2 262474849#4 262474849#5 262474849#6 262474849#7 262474849#8 39888045#1 146190183#0 146190183#1 146190183#2 -256431162#0"/>
    </vehicle>
    <vehicle id="veh62" type="veh_passenger" depart="285.89" departLane="best">
        <route edges="448850570#2 448850570#3 448850570#6 448850570#7 448850570#8 448850570#9 190128487#1 190128487#3 190128487#4 190128487#5 434872534#4 434872534#5 60175590#0 60175590#1 60175590#2 60175590#3 38336628#0 38336628#1 38336628#2 38336628#4 38336628#5 13836129#0 13836129#2 14326572#0 14326572#1 14326572#2 14326572#3 60175941#0 60175941#2 60175941#3 60175941#5 60175941#7"/>
    </vehicle>
    <vehicle id="veh63" type="veh_passenger" depart="290.50" departLane="best">
        <route edges="-255848372 -39888367#2 -39888367#1 -262474849#5 -262474849#4 -262474849#2 -262474849#1 -262474849#0 252518642#1 252518644#0 252518644#2 13802005 259888928#0 259888928#2 14326493#0 14326493#2 14326493#3 14326493#4 211436103#0 14326464#2 14326464#3 14326464#4 14326464#6 14326464#7 14326464#8 14326558#0 14326558#1 14326558#2 14326558#3 14326558#4 608420973 448850568#0 448850570#1 448850570#2 448850570#3 448850570#6 448850570#7 448850570#8 448850570#9 220232893#0 220232893#1"/>
    </vehicle>
    <vehicle id="veh64" type="veh_passenger" depart="295.11" departLane="best">
        <route edges="206720845#1 206720845#2 206720845#4 206720845#6 38336628#2 38336628#4 38336628#5 13836129#0 13836129#2 14326572#0 14326572#1 14326572#2 14326572#3 60175941#0 60175941#2 60175941#3 60175941#5 60175941#7 8366889#0 8366889#1 34607518#3 215200352#0 215200352#1 215200349#1 124539828#1 190128490 26119844#0 26119844#1"/>
    </vehicle>
    <vehicle id="veh65" type="veh_passenger" depart="299.72" departLane="best">
        <route edges="-8367089#1 -8367089#0 215331285#1 34683791 258853579#0 258853580#3 51230332#0 14326493#0 14326493#2 14326493#3 14326493#4 211436103#0 14326464#2 14326464#3 14326464#4 14326464#6 14326464#7 14326464#8 14326558#0 14326558#1 14326558#2 14326558#3 14326558#4 608420973 448850568#0 448850570#1 448850570#2 448850570#3 448850570#6 448850570#7 448850570#8"/>
    </vehicle>
    <vehicle id="veh66" type="veh_passenger" depart="304.33" departLane="best">
        <route edges="14333474 215194131#0 215194131#1 8366901#0 8366901#1 124539828#1 190128490 26119844#0 26119844#1 26119844#2 216969809#3 216969809#5 34683791 258853579#0 258853580#3 28193881 608421700#0 608421700#1 608421700#2 608421700#2-AddedOffRampEdge 608421700#3 595164142 28193886 156211620 386286210 434860177#0 434860177#1 156211618#0 167487363#0 167487363#1 167487363#2 36748084#0 36748084#2 482296561 212706762#0 207634492 -207634492 482296563#0 207634523#0 482261339#0 207634505#0 207634513 128363657"/>
    </vehicle>
    <vehicle id="veh68" type="veh_passenger" depart="313.55" departLane="best">