<?xml version="1.0" encoding="UTF-8"?>

<!-- generated on Mon May  6 09:46:29 2019 by Eclipse SUMO polyconvert Version 1.2.0
<configuration xmlns:xsi="http://www.w3.org/2001/XMLSchema-instance" xsi:noNamespaceSchemaLocation="http://sumo.dlr.de/xsd/polyconvertConfiguration.xsd">

    <input>
        <net-file value="osm.net.xml"/>
        <osm-files value="osm_bbox.osm.xml"/>
        <osm.keep-full-type value="true"/>
        <type-file value="/usr/share/sumo/data/typemap/osmPolyconvert.typ.xml"/>
    </input>

    <output>
        <output-file value="osm.poly.xml"/>
    </output>

    <processing>
        <poi-layer-offset value="5"/>
    </processing>

    <report>
        <verbose value="true"/>
    </report>

</configuration>
-->

<additional xmlns:xsi="http://www.w3.org/2001/XMLSchema-instance" xsi:noNamespaceSchemaLocation="http://sumo.dlr.de/xsd/additional_file.xsd">
    <location netOffset="-529120.09,-4554424.78" convBoundary="-1985.18,-5786.28,11171.19,2440.70" origBoundary="-8.676638,41.088015,-8.520283,41.162460" projParameter="+proj=utm +zone=29 +ellps=WGS84 +datum=WGS84 +units=m +no_defs"/>

    <poly id="107430879" type="leisure.park" color="207,245,201" fill="1" layer="-2.00" shape="2790.529520,840.438596 2797.311518,851.580800 2807.842804,868.867411 2816.732701,883.460305 2819.840329,886.660014 2823.846209,889.774840 2827.663988,891.767596 2830.996674,893.391884 2833.611254,894.202624 2837.126369,894.406723 2839.753952,894.162882 2873.292926,888.770025 2891.896424,885.010396 2896.290364,883.819587 2901.491766,882.199362 2905.613760,879.875015 2909.025612,876.837063 2909.965270,874.965032 2910.761886,873.181185 2911.180165,871.562203 2914.574829,847.564579 2915.224329,842.971414 2909.698630,841.992461 2908.717575,841.821638 2907.568839,841.616776 2866.868004,834.433448 2866.404180,836.873743 2865.932014,839.302900 2789.984440,824.982956 2784.996943,831.422237 2790.529520,840.438596"/>
    <poly id="107826036" type="amenity.courthouse" color="237,199,199" fill="1" layer="-1.00" shape="2959.373929,573.010598 2964.387671,545.378830 2970.837527,509.860222 2971.129865,508.262894 2976.538325,509.241375 2978.860360,496.440470 2977.116247,496.121967 2973.451891,495.461987 2974.096824,491.923449 2973.948541,487.471105 2972.313555,483.323074 2969.391217,479.946493 2965.507051,477.742447 2961.104796,476.946015 2956.687522,477.659321 2952.759124,479.795764 2949.773831,483.113105 2948.068969,487.235372 2943.146820,486.347858 2940.446776,485.858648 2927.374137,483.503300 2924.519050,499.232672 2929.365715,500.108741 2928.092970,507.119292 2945.827751,510.316608 2941.665436,533.256198 2923.930661,530.069992 2922.658072,537.047241 2917.819774,536.182314 2912.195796,567.141880 2944.227123,572.921915 2946.826533,573.388482 2952.343941,574.389627 2954.264164,574.731100 2954.728568,572.168697 2958.216760,572.805692 2959.373929,573.010598"/>
    <poly id="107826036#1" type="building.public" color="255,230,230" fill="1" layer="-1.00" shape="2959.373929,573.010598 2964.387671,545.378830 2970.837527,509.860222 2971.129865,508.262894 2976.538325,509.241375 2978.860360,496.440470 2977.116247,496.121967 2973.451891,495.461987 2974.096824,491.923449 2973.948541,487.471105 2972.313555,483.323074 2969.391217,479.946493 2965.507051,477.742447 2961.104796,476.946015 2956.687522,477.659321 2952.759124,479.795764 2949.773831,483.113105 2948.068969,487.235372 2943.146820,486.347858 2940.446776,485.858648 2927.374137,483.503300 2924.519050,499.232672 2929.365715,500.108741 2928.092970,507.119292 2945.827751,510.316608 2941.665436,533.256198 2923.930661,530.069992 2922.658072,537.047241 2917.819774,536.182314 2912.195796,567.141880 2944.227123,572.921915 2946.826533,573.388482 2952.343941,574.389627 2954.264164,574.731100 2954.728568,572.168697 2958.216760,572.805692 2959.373929,573.010598"/>
    <poly id="112525669" type="building.yes" color="255,230,230" fill="1" layer="-1.00" shape="4019.152713,1049.764610 4015.540281,1037.736400 4011.613857,1024.629922 3995.617884,1028.809277 4021.311607,1102.895096 4029.826624,1127.390340 4040.589611,1124.330762 4046.712856,1126.689874 4050.274623,1129.525826 4054.512530,1133.141956 4057.930182,1136.299201 4059.589482,1136.773000 4064.802076,1138.250972 4071.573475,1140.157886 4082.962455,1143.373566 4086.916246,1083.954078 4087.213637,1079.448219 4072.299669,1072.664038 4061.612810,1066.332043 4064.501113,1062.259808 4067.955254,1057.390836 4068.899162,1049.102300 4073.403951,1047.546352 4072.307705,1043.189582 4068.120414,1026.573813 4063.566767,1009.323597 4052.811891,1012.405381 4050.240826,1013.137509 4040.872362,1015.814850 4048.672588,1042.504966 4028.393445,1047.486316 4023.966300,1048.576382 4019.152713,1049.764610"/>
    <poly id="112525669#1" type="landuse.commercial" color="209,209,204" fill="1" layer="-3.00" shape="4019.152713,1049.764610 4015.540281,1037.736400 4011.613857,1024.629922 3995.617884,1028.809277 4021.311607,1102.895096 4029.826624,1127.390340 4040.589611,1124.330762 4046.712856,1126.689874 4050.274623,1129.525826 4054.512530,1133.141956 4057.930182,1136.299201 4059.589482,1136.773000 4064.802076,1138.250972 4071.573475,1140.157886 4082.962455,1143.373566 4086.916246,1083.954078 4087.213637,1079.448219 4072.299669,1072.664038 4061.612810,1066.332043 4064.501113,1062.259808 4067.955254,1057.390836 4068.899162,1049.102300 4073.403951,1047.546352 4072.307705,1043.189582 4068.120414,1026.573813 4063.566767,1009.323597 4052.811891,1012.405381 4050.240826,1013.137509 4040.872362,1015.814850 4048.672588,1042.504966 4028.393445,1047.486316 4023.966300,1048.576382 4019.152713,1049.764610"/>
    <poly id="112525669#2" type="shop.mall" color="237,199,255" fill="1" layer="-1.00" shape="4019.152713,1049.764610 4015.540281,1037.736400 4011.613857,1024.629922 3995.617884,1028.809277 4021.311607,1102.895096 4029.826624,1127.390340 4040.589611,1124.330762 4046.712856,1126.689874 4050.274623,1129.525826 4054.512530,1133.141956 4057.930182,1136.299201 4059.589482,1136.773000 4064.802076,1138.250972 4071.573475,1140.157886 4082.962455,1143.373566 4086.916246,1083.954078 4087.213637,1079.448219 4072.299669,1072.664038 4061.612810,1066.332043 4064.501113,1062.259808 4067.955254,1057.390836 4068.899162,1049.102300 4073.403951,1047.546352 4072.307705,1043.189582 4068.120414,1026.573813 4063.566767,1009.323597 4052.811891,1012.405381 4050.240826,1013.137509 4040.872362,1015.814850 4048.672588,1042.504966 4028.393445,1047.486316 4023.966300,1048.576382 4019.152713,1049.764610"/>
    <poly id="112655822" type="aeroway.helipad" color="grey" fill="1" layer="-2.00" shape="1697.504992,687.442279 1720.230768,671.252318 1710.227938,657.322179 1704.713449,649.638907 1681.987642,665.828915 1697.504992,687.442279"/>
    <poly id="128235044" type="amenity.school" color="237,199,199" fill="1" layer="-1.00" shape="2069.388769,1334.271047 2136.507961,1434.215891 2192.342380,1398.497305 2218.603539,1406.825010 2232.238902,1353.973859 2160.690195,1326.446320 2069.388769,1334.271047"/>
    <poly id="128235046" type="amenity.school" color="237,199,199" fill="1" layer="-1.00" shape="2230.917111,1446.898686 2259.647592,1327.636711 2262.565770,1324.163381 2266.140289,1322.213775 2271.402304,1322.003253 2313.041991,1338.645793 2313.466115,1337.581876 2363.850667,1357.714901 2363.426586,1358.767715 2373.689771,1362.397731 2376.157377,1364.184607 2381.285001,1402.917588 2380.363921,1406.366177 2371.998082,1412.247199 2369.001434,1414.454578 2286.762705,1475.025492 2276.035766,1458.282751 2230.917111,1446.898686"/>
    <poly id="128823402" type="amenity.hospital" color="237,199,199" fill="1" layer="-1.00" shape="2479.213566,1119.886371 2523.819265,1149.342937 2507.162083,1188.292516 2509.363322,1189.589817 2463.851925,1301.739922 2456.566499,1319.692831 2452.760787,1334.352543 2408.130812,1316.552845 2405.532526,1323.657683 2403.018457,1322.914136 2399.590403,1329.804467 2393.956192,1342.380343 2362.465399,1334.529037 2336.871454,1325.171251 2329.403138,1321.364593 2325.561560,1315.175633 2323.346774,1305.330188 2337.503971,1244.532818 2342.659542,1232.032550 2353.609228,1212.696530 2368.759156,1196.176202 2382.009412,1201.839572 2390.540587,1181.027783 2401.389580,1169.517944 2406.246318,1171.859109 2409.868071,1166.768058 2434.451684,1149.822322 2450.841918,1157.042484 2459.591321,1134.333365 2470.754581,1137.512244 2474.066784,1134.162819 2468.329159,1125.956218 2476.833593,1119.165583 2479.213566,1119.886371"/>
    <poly id="128828724" type="amenity.parking" color="184,184,179" fill="1" layer="-1.00" shape="3913.972183,1379.202781 3908.281114,1388.935273 3907.731402,1389.887517 3906.894248,1391.315827 3905.151701,1392.562419 3904.166778,1393.268463 3895.773906,1399.280849 3884.542810,1402.049882 3873.036098,1400.821145 3865.674615,1397.701683 3856.796872,1390.312406 3850.695236,1379.483100 3848.976198,1368.085197 3850.309527,1360.830830 3850.842730,1357.957946 3851.747854,1356.341211 3856.501636,1347.903321 3861.118011,1343.883213 3864.841411,1340.647283 3866.648683,1339.933845 3875.600938,1336.410690 3887.414584,1336.586173 3889.948495,1336.619826 3900.575954,1341.186167 3908.138976,1347.992274 3913.774086,1358.064616 3915.610596,1369.440864 3913.972183,1379.202781"/>
    <poly id="128828724#1" type="building.yes" color="255,230,230" fill="1" layer="-1.00" shape="3913.972183,1379.202781 3908.281114,1388.935273 3907.731402,1389.887517 3906.894248,1391.315827 3905.151701,1392.562419 3904.166778,1393.268463 3895.773906,1399.280849 3884.542810,1402.049882 3873.036098,1400.821145 3865.674615,1397.701683 3856.796872,1390.312406 3850.695236,1379.483100 3848.976198,1368.085197 3850.309527,1360.830830 3850.842730,1357.957946 3851.747854,1356.341211 3856.501636,1347.903321 3861.118011,1343.883213 3864.841411,1340.647283 3866.648683,1339.933845 3875.600938,1336.410690 3887.414584,1336.586173 3889.948495,1336.619826 3900.575954,1341.186167 3908.138976,1347.992274 3913.774086,1358.064616 3915.610596,1369.440864 3913.972183,1379.202781"/>
    <poly id="133211838" type="amenity.fountain" color="237,199,199" fill="1" layer="-1.00" shape="3134.305846,739.203845 3131.721170,737.316285 3131.240040,734.150238 3133.147925,731.572014 3136.322052,731.097561 3138.906729,732.985122 3139.387856,736.151169 3137.479969,738.729391 3134.305846,739.203845"/>
    <poly id="133211838#1" type="natural.water" color="181,209,209" fill="1" layer="-4.00" shape="3134.305846,739.203845 3131.721170,737.316285 3131.240040,734.150238 3133.147925,731.572014 3136.322052,731.097561 3138.906729,732.985122 3139.387856,736.151169 3137.479969,738.729391 3134.305846,739.203845"/>
    <poly id="155214603" type="amenity.place_of_worship" color="237,199,199" fill="1" layer="-1.00" shape="2196.084143,611.618679 2195.965590,604.035869 2179.727140,604.132817 2179.960818,608.352375 2180.178473,612.394241 2196.084143,611.618679"/>
    <poly id="155214603#1" type="building.yes" color="255,230,230" fill="1" layer="-1.00" shape="2196.084143,611.618679 2195.965590,604.035869 2179.727140,604.132817 2179.960818,608.352375 2180.178473,612.394241 2196.084143,611.618679"/>
    <poly id="156208920" type="building.yes" color="255,230,230" fill="1" layer="-1.00" shape="3471.446719,1004.582297 3486.375932,1002.461914 3484.000572,985.676957 3474.313097,977.141091 3467.954115,984.295392 3466.527369,984.344535 3466.820142,986.432922 3461.832573,987.132275 3462.898200,994.674941 3463.581521,999.507138 3464.077686,1003.028524 3471.088799,1002.049560 3471.446719,1004.582297"/>
    <poly id="156208920#1" type="tourism.hotel" color="207,245,201" fill="1" layer="-2.00" shape="3471.446719,1004.582297 3486.375932,1002.461914 3484.000572,985.676957 3474.313097,977.141091 3467.954115,984.295392 3466.527369,984.344535 3466.820142,986.432922 3461.832573,987.132275 3462.898200,994.674941 3463.581521,999.507138 3464.077686,1003.028524 3471.088799,1002.049560 3471.446719,1004.582297"/>
    <poly id="156208927" type="amenity.bus_station" color="237,199,199" fill="1" layer="-1.00" shape="3479.668300,1036.979830 3468.320800,1037.539789 3462.127719,1037.612082 3459.660585,1037.634384 3460.321948,1041.744886 3462.790763,1041.345140 3463.688115,1045.223564 3465.795635,1054.336188 3466.948056,1059.348102 3467.935972,1063.615482 3467.111319,1064.133574 3468.894679,1066.905801 3468.145200,1067.501939 3468.886360,1068.770815 3468.322327,1069.179054 3470.298036,1072.096459 3472.346623,1069.963009 3488.558554,1053.027859 3485.565543,1050.549969 3483.186913,1047.664067 3481.437762,1044.747670 3479.726681,1040.821208 3479.668300,1036.979830"/>
    <poly id="156208927#1" type="building.apartments" color="255,230,230" fill="1" layer="-1.00" shape="3479.668300,1036.979830 3468.320800,1037.539789 3462.127719,1037.612082 3459.660585,1037.634384 3460.321948,1041.744886 3462.790763,1041.345140 3463.688115,1045.223564 3465.795635,1054.336188 3466.948056,1059.348102 3467.935972,1063.615482 3467.111319,1064.133574 3468.894679,1066.905801 3468.145200,1067.501939 3468.886360,1068.770815 3468.322327,1069.179054 3470.298036,1072.096459 3472.346623,1069.963009 3488.558554,1053.027859 3485.565543,1050.549969 3483.186913,1047.664067 3481.437762,1044.747670 3479.726681,1040.821208 3479.668300,1036.979830"/>
    <poly id="156208931" type="building.yes" color="255,230,230" fill="1" layer="-1.00" shape="3454.269370,970.779358 3459.903094,964.432220 3474.313097,977.141091 3467.954115,984.295392 3466.527369,984.344535 3465.307012,983.273349 3464.025068,984.721928 3459.380942,985.556032 3458.486552,984.774940 3458.475215,983.553725 3461.022169,980.689796 3460.002456,979.786028 3460.516892,979.211044 3457.691714,976.722814 3457.962112,976.302162 3456.855368,976.097401 3456.170608,975.350548 3456.419842,974.030581 3454.948736,972.736249 3455.623446,971.973254 3454.269370,970.779358"/>
    <poly id="156208932" type="building.yes" color="255,230,230" fill="1" layer="-1.00" shape="3430.566507,947.571515 3431.402919,974.551866 3442.763159,973.037178 3442.380598,970.382216 3441.423855,970.411257 3441.365384,968.468235 3443.259911,968.898535 3445.699194,967.599431 3446.049912,966.102293 3445.270096,964.089447 3446.005474,962.893764 3449.959018,966.386154 3447.808428,968.807794 3451.427608,972.010056 3453.291093,971.874044 3454.269370,970.779358 3459.903094,964.432220 3436.256821,943.589229 3434.228077,943.147232 3431.950645,943.903088 3430.726600,945.540655 3430.566507,947.571515"/>
    <poly id="156208934" type="landuse.commercial" color="209,209,204" fill="0" layer="-3.00" shape="3560.392523,1277.055097 3574.621815,1266.217091 3576.804650,1258.455811 3563.939963,1236.228552 3538.866258,1225.248054 3538.838675,1190.122791 3536.107092,1185.492358 3519.459336,1157.275668 3520.699780,1140.695574 3516.438745,1140.321290 3516.568170,1137.646408 3516.770585,1135.538028 3516.194582,1134.869365 3500.329018,1143.790721 3495.348918,1146.599368 3489.115445,1150.101819 3489.873226,1151.404076 3488.502128,1152.152858 3487.776077,1151.261498 3484.755394,1153.113068 3484.874669,1154.590099 3485.272319,1159.498735 3485.654128,1164.196372 3486.075761,1169.371551 3486.401954,1173.369545 3486.513184,1174.768830 3486.935014,1179.899604 3487.714318,1189.539182 3488.080234,1194.036921 3488.526094,1199.423137 3488.844042,1203.387791 3489.543378,1204.623179 3490.800446,1206.860191 3489.765639,1207.466154 3489.823698,1209.497987 3489.881262,1211.640833 3490.466214,1214.063570 3491.701955,1219.197978 3492.847080,1223.954531 3493.827507,1228.010954 3494.818291,1229.747211 3497.307638,1234.132315 3499.688793,1238.317109 3502.927512,1244.004436 3509.188409,1255.011778 3511.969187,1259.897756 3514.017319,1263.492689 3514.877410,1264.429057 3516.532043,1264.070099 3516.965897,1266.503265 3519.023638,1266.068399 3524.634128,1264.883403 3527.456181,1264.285431 3550.620523,1259.382210 3552.488158,1262.054922 3556.990417,1268.513928 3560.384132,1277.055060"/>
    <poly id="156208934#1" type="shop.mall" color="237,199,255" fill="0" layer="-1.00" shape="3560.392523,1277.055097 3574.621815,1266.217091 3576.804650,1258.455811 3563.939963,1236.228552 3538.866258,1225.248054 3538.838675,1190.122791 3536.107092,1185.492358 3519.459336,1157.275668 3520.699780,1140.695574 3516.438745,1140.321290 3516.568170,1137.646408 3516.770585,1135.538028 3516.194582,1134.869365 3500.329018,1143.790721 3495.348918,1146.599368 3489.115445,1150.101819 3489.873226,1151.404076 3488.502128,1152.152858 3487.776077,1151.261498 3484.755394,1153.113068 3484.874669,1154.590099 3485.272319,1159.498735 3485.654128,1164.196372 3486.075761,1169.371551 3486.401954,1173.369545 3486.513184,1174.768830 3486.935014,1179.899604 3487.714318,1189.539182 3488.080234,1194.036921 3488.526094,1199.423137 3488.844042,1203.387791 3489.543378,1204.623179 3490.800446,1206.860191 3489.765639,1207.466154 3489.823698,1209.497987 3489.881262,1211.640833 3490.466214,1214.063570 3491.701955,1219.197978 3492.847080,1223.954531 3493.827507,1228.010954 3494.818291,1229.747211 3497.307638,1234.132315 3499.688793,1238.317109 3502.927512,1244.004436 3509.188409,1255.011778 3511.969187,1259.897756 3514.017319,1263.492689 3514.877410,1264.429057 3516.532043,1264.070099 3516.965897,1266.503265 3519.023638,1266.068399 3524.634128,1264.883403 3527.456181,1264.285431 3550.620523,1259.382210 3552.488158,1262.054922 3556.990417,1268.513928 3560.384132,1277.055060"/>
    <poly id="156208949" type="building.construction" color="255,230,230" fill="1" layer="-1.00" shape="3425.098193,641.723339 3424.817073,621.939238 3443.901592,623.445254 3450.630940,642.458788 3425.098193,641.723339"/>
    <poly id="156208949#1" type="shop.clothes" color="237,199,255" fill="1" layer="-1.00" shape="3425.098193,641.723339 3424.817073,621.939238 3443.901592,623.445254 3450.630940,642.458788 3425.098193,641.723339"/>
    <poly id="156208976" type="amenity.cafe" color="237,199,199" fill="1" layer="-1.00" shape="3466.889122,1027.408841 3489.442181,1024.256730 3491.020409,1035.387471 3479.668300,1036.979830 3468.320800,1037.539789 3466.889122,1027.408841"/>
    <poly id="156208976#1" type="building.apartments" color="255,230,230" fill="1" layer="-1.00" shape="3466.889122,1027.408841 3489.442181,1024.256730 3491.020409,1035.387471 3479.668300,1036.979830 3468.320800,1037.539789 3466.889122,1027.408841"/>
    <poly id="156208985" type="building.office" color="255,230,230" fill="1" layer="-1.00" shape="3630.748734,912.552758 3648.833445,910.413545 3650.506526,890.993434 3649.355550,889.422961 3647.186391,888.480707 3645.160558,889.259829 3629.812248,911.804760 3630.748734,912.552758"/>
    <poly id="156208989" type="building.yes" color="255,230,230" fill="1" layer="-1.00" shape="3613.610043,1130.575941 3609.165684,1131.788296 3595.687225,1128.541797 3593.815992,1126.668367 3593.617152,1124.225147 3595.381610,1121.835125 3603.374401,1117.108378 3613.610043,1130.575941"/>
    <poly id="156208992" type="building.yes" color="255,230,230" fill="1" layer="-1.00" shape="3658.196406,1193.255079 3685.008364,1175.901663 3693.802683,1170.201682 3689.329444,1162.899008 3686.355655,1158.034298 3690.639521,1155.189349 3682.571040,1143.130195 3670.317044,1151.256990 3665.532556,1144.119457 3661.004608,1147.129849 3638.179875,1162.280930 3638.729646,1163.182617 3649.904696,1180.451158 3651.212961,1182.488601 3652.413090,1184.314630 3655.746406,1189.469578 3656.113067,1190.037399 3657.046377,1191.484781 3657.504740,1192.186232 3658.196406,1193.255079"/>
    <poly id="156208994" type="building.office" color="255,230,230" fill="1" layer="-1.00" shape="3471.446719,1004.582297 3463.814268,1005.647302 3464.644073,1011.501490 3462.704433,1011.781478 3463.062454,1014.292012 3463.762011,1019.246398 3464.111838,1021.712490 3466.043034,1021.443566 3466.889122,1027.408841 3489.442181,1024.256730 3486.375932,1002.461914 3471.446719,1004.582297"/>
    <poly id="157276832" type="leisure.park" color="207,245,201" fill="1" layer="-2.00" shape="1890.844829,1139.090862 1895.229680,1137.988227 1900.515338,1140.142150 1908.475449,1146.792430 1916.775994,1152.311815 1919.471701,1155.753622 1924.867537,1163.569783 1929.759574,1171.461516 1928.268433,1172.853965 1925.037013,1177.003285 1920.135938,1183.088270 1912.536298,1186.408630 1906.304009,1187.847554 1903.749539,1186.715457 1899.165914,1165.469980 1890.809158,1147.494525 1890.815803,1145.929245 1888.469998,1141.101250 1890.844829,1139.090862"/>
    <poly id="167487544" type="building.yes" color="255,230,230" fill="1" layer="-1.00" shape="3120.297543,1217.127662 3119.891821,1208.289084 3101.058464,1209.149625 3100.422582,1195.414276 3113.892999,1194.796505 3103.996989,1182.141556 3101.470258,1184.273000 3102.063603,1188.627401 3091.211733,1189.123520 3092.567851,1218.404131 3120.297543,1217.127662"/>
    <poly id="167487545" type="amenity.place_of_worship" color="237,199,199" fill="1" layer="-1.00" shape="2866.131296,784.196023 2867.042070,779.337562 2868.014694,779.519444 2869.423739,772.021012 2868.451113,771.839130 2868.915184,769.343329 2864.546710,768.536000 2864.082640,771.031801 2863.059714,770.838599 2862.097233,776.007675 2859.187700,775.473171 2857.838767,782.661026 2866.131296,784.196023"/>
    <poly id="167487545#1" type="building.yes" color="255,230,230" fill="1" layer="-1.00" shape="2866.131296,784.196023 2867.042070,779.337562 2868.014694,779.519444 2869.423739,772.021012 2868.451113,771.839130 2868.915184,769.343329 2864.546710,768.536000 2864.082640,771.031801 2863.059714,770.838599 2862.097233,776.007675 2859.187700,775.473171 2857.838767,782.661026 2866.131296,784.196023"/>
    <poly id="167487546" type="building.yes" color="255,230,230" fill="1" layer="-1.00" shape="1743.962727,869.835577 1768.429166,854.663353 1714.042248,767.620192 1711.980967,768.888162 1709.431627,770.476016 1706.024164,772.582019 1702.633486,774.688094 1694.556491,779.694091 1692.436290,781.006224 1690.913422,781.954528 1689.575681,782.781496 1743.962727,869.835577"/>
    <poly id="167487547" type="building.hospital" color="255,230,230" fill="1" layer="-1.00" shape="2410.476463,1307.715087 2412.106012,1311.207986 2415.708155,1312.589017 2419.179779,1311.160811 2440.397763,1319.556353 2442.035734,1323.038194 2445.629427,1324.430305 2449.101099,1322.991012 2451.145487,1317.859860 2454.764161,1319.296489 2458.267604,1310.508156 2454.648926,1309.071525 2468.323485,1274.760449 2429.698632,1259.484425 2410.476463,1307.715087"/>
    <poly id="167487551" type="building.yes" color="255,230,230" fill="1" layer="-1.00" shape="3116.259912,1308.752664 3115.723098,1308.705889 3116.916808,1296.799255 3094.329816,1294.557032 3093.364338,1304.188871 3088.357137,1303.689429 3089.576807,1291.594180 3061.244529,1288.771657 3060.033296,1300.866948 3054.296384,1300.297707 3055.306014,1290.155390 3032.911925,1287.925309 3031.744891,1299.521231 3030.922934,1299.439903 3030.957914,1299.118114 3028.852702,1298.909023 3028.624771,1301.128318 3030.729982,1301.337409 3030.756278,1301.082191 3031.578235,1301.163518 3029.770098,1319.250993 3042.585832,1320.528567 3043.209094,1314.281171 3058.532604,1315.814048 3058.305251,1317.900127 3086.763621,1320.645485 3086.864778,1318.636560 3101.827662,1320.123532 3101.151754,1326.881360 3113.774574,1328.136006 3115.547640,1310.436948 3116.084406,1310.494824 3116.057911,1310.794447 3118.171508,1311.003601 3118.408445,1308.651130 3116.294847,1308.441976 3116.259912,1308.752664"/>
    <poly id="167487569" type="building.roof" color="255,230,230" fill="1" layer="-1.00" shape="2845.458801,754.442402 2842.280975,753.851224 2850.876507,707.240414 2852.003090,701.006313 2856.601018,676.236832 2859.787316,676.816952 2850.882413,725.069415 2850.487080,727.199169 2851.996377,727.472208 2855.014921,728.029390 2888.973721,734.250583 2890.868681,734.603030 2892.730124,734.944230 2897.400513,735.797304 2898.549266,736.002165 2899.521896,736.184050 2898.705250,740.621064 2897.707446,740.439068 2896.491660,740.211711 2891.821274,739.358637 2889.909532,739.006116 2888.157081,738.687597 2875.059901,736.287823 2870.674625,735.480418 2854.022226,732.432333 2851.271967,731.931833 2849.670463,731.636188 2847.951423,740.942807 2845.458801,754.442402"/>
    <poly id="167487608" type="amenity.courthouse" color="237,199,199" fill="1" layer="-1.00" shape="2927.554928,555.175224 2933.416167,556.233370 2933.192627,557.453551 2942.114430,559.069102 2944.608316,545.336416 2929.825199,542.673817 2927.554928,555.175224"/>
    <poly id="167487608#1" type="building.public" color="255,230,230" fill="1" layer="-1.00" shape="2927.554928,555.175224 2933.416167,556.233370 2933.192627,557.453551 2942.114430,559.069102 2944.608316,545.336416 2929.825199,542.673817 2927.554928,555.175224"/>
    <poly id="167487613" type="amenity.parking" color="184,184,179" fill="1" layer="-1.00" shape="3127.460759,1288.086711 3129.612325,1268.291146 3130.478058,1260.357400 3126.016185,1259.871442 3126.558468,1254.878164 3072.151849,1248.998662 3071.609554,1254.003045 3067.323784,1253.540101 3064.525443,1279.238827 3064.306772,1281.258336 3124.869173,1287.808836 3127.460759,1288.086711"/>
    <poly id="198456545" type="amenity.place_of_worship" color="237,199,199" fill="1" layer="-1.00" shape="1880.067851,578.043617 1872.847356,582.842124 1880.164567,594.807235 1878.204191,596.008977 1885.530148,607.885319 1888.055464,611.981373 1887.239313,612.488577 1889.164719,615.571853 1902.357640,607.401668 1900.440582,604.329526 1899.792733,604.726428 1892.883030,593.640042 1889.865762,588.798101 1887.627658,590.187388 1880.067851,578.043617"/>
    <poly id="198456545#1" type="building.church" color="255,230,230" fill="1" layer="-1.00" shape="1880.067851,578.043617 1872.847356,582.842124 1880.164567,594.807235 1878.204191,596.008977 1885.530148,607.885319 1888.055464,611.981373 1887.239313,612.488577 1889.164719,615.571853 1902.357640,607.401668 1900.440582,604.329526 1899.792733,604.726428 1892.883030,593.640042 1889.865762,588.798101 1887.627658,590.187388 1880.067851,578.043617"/>
    <poly id="198456547" type="amenity.police" color="237,199,199" fill="1" layer="-1.00" shape="2248.059666,481.321674 2247.881432,499.382993 2259.436539,499.499213 2259.483929,494.326133 2301.802331,494.752213 2301.755007,499.903089 2315.155908,500.116146 2315.477595,487.761598 2315.426903,481.988617 2248.059666,481.321674"/>
    <poly id="198456547#1" type="building.public" color="255,230,230" fill="1" layer="-1.00" shape="2248.059666,481.321674 2247.881432,499.382993 2259.436539,499.499213 2259.483929,494.326133 2301.802331,494.752213 2301.755007,499.903089 2315.155908,500.116146 2315.477595,487.761598 2315.426903,481.988617 2248.059666,481.321674"/>
    <poly id="198456548" type="building.house" color="255,230,230" fill="1" layer="-1.00" shape="2607.766751,451.102211 2595.097672,460.139319 2603.538786,479.736750 2604.799384,481.252023 2608.375803,478.980648 2614.675750,489.188054 2582.592429,504.923895 2580.834251,502.040987 2574.890633,506.411387 2572.898895,505.137180 2573.395532,502.852431 2566.573824,500.713568 2566.622876,489.401382 2577.411892,482.343233 2579.280408,483.006325 2583.345368,480.315201 2579.684655,474.937310 2582.774058,472.730418 2575.160713,465.425929 2573.322182,463.652821 2569.368207,456.230993 2600.931510,438.538977 2607.766751,451.102211"/>
    <poly id="198456548#1" type="tourism.attraction" color="207,245,201" fill="1" layer="-2.00" shape="2607.766751,451.102211 2595.097672,460.139319 2603.538786,479.736750 2604.799384,481.252023 2608.375803,478.980648 2614.675750,489.188054 2582.592429,504.923895 2580.834251,502.040987 2574.890633,506.411387 2572.898895,505.137180 2573.395532,502.852431 2566.573824,500.713568 2566.622876,489.401382 2577.411892,482.343233 2579.280408,483.006325 2583.345368,480.315201 2579.684655,474.937310 2582.774058,472.730418 2575.160713,465.425929 2573.322182,463.652821 2569.368207,456.230993 2600.931510,438.538977 2607.766751,451.102211"/>
    <poly id="200646718" type="building.yes" color="255,230,230" fill="1" layer="-1.00" shape="1783.488620,873.277581 1788.775680,881.104275 1788.885080,883.014190 1787.377172,884.395494 1781.964649,886.393067 1782.742535,888.971898 1768.200538,894.849691 1766.867050,890.703207 1764.755612,885.976158 1775.575078,881.314879 1774.233096,879.177724 1783.488620,873.277581"/>
    <poly id="209428938" type="building.yes" color="255,230,230" fill="1" layer="-1.00" shape="3299.160352,583.813240 3302.577978,585.216089 3307.310723,587.157646 3311.515901,573.721311 3303.130501,570.386959 3299.160352,583.813240"/>
    <poly id="209428938#1" type="tourism.hostel" color="207,245,201" fill="1" layer="-2.00" shape="3299.160352,583.813240 3302.577978,585.216089 3307.310723,587.157646 3311.515901,573.721311 3303.130501,570.386959 3299.160352,583.813240"/>
    <poly id="209635015" type="building.yes" color="255,230,230" fill="1" layer="-1.00" shape="2785.326773,1026.843054 2786.269324,1018.532159 2787.229298,1013.918134 2787.846550,1010.923430 2804.330612,1013.948433 2803.096387,1021.791788 2802.448670,1029.837534 2785.326773,1026.843054"/>
    <poly id="209635015#1" type="shop.art_gallery" color="237,199,255" fill="1" layer="-1.00" shape="2785.326773,1026.843054 2786.269324,1018.532159 2787.229298,1013.918134 2787.846550,1010.923430 2804.330612,1013.948433 2803.096387,1021.791788 2802.448670,1029.837534 2785.326773,1026.843054"/>
    <poly id="209635018" type="building.yes" color="255,230,230" fill="1" layer="-1.00" shape="2712.202866,1013.901709 2713.610499,1006.680777 2717.887898,1007.176779 2719.706441,998.092590 2720.754996,998.174870 2720.918636,997.209755 2727.937816,998.206177 2726.094227,1011.109164 2725.358384,1016.290349 2712.202866,1013.901709"/>