<?xml version="1.0" encoding="UTF-8"?>
<!-- generated on 2019-05-06 09:46:32.542596 by $Id$ via randomTrips.py
  options: 
-->
<routes xmlns:xsi="http://www.w3.org/2001/XMLSchema-instance" xsi:noNamespaceSchemaLocation="http://sumo.dlr.de/xsd/routes_file.xsd">
    <vType id="veh_passenger" vClass="passenger">
    </vType>
    <trip id="veh0" depart="0.00" departLane="best" from="26119992#8" to="-207634523#0" type="veh_passenger"/>
    <trip id="veh1" depart="4.61" departLane="best" from="112465240#3" to="128363659#0" type="veh_passenger"/>
    <trip id="veh2" depart="9.22" departLane="best" from="34607518#7" to="332479850#0" type="veh_passenger"/>
    <trip id="veh3" depart="13.83" departLane="best" from="452076637#3" to="-262474849#2" type="veh_passenger"/>
    <trip id="veh4" depart="18.44" departLane="best" from="14333465#1" to="-210365858#0" type="veh_passenger"/>
    <trip id="veh5" depart="23.06" departLane="best" from="-39888370" to="233098267" type="veh_passenger"/>
    <trip id="veh6" depart="27.67" departLane="best" from="-146190183#0" to="124539828#1" type="veh_passenger"/>
    <trip id="veh7" depart="32.28" departLane="best" from="262474849#1" to="258853581#4" type="veh_passenger"/>
    <trip id="veh9" depart="41.50" departLane="best" from="39671211" to="-13277357#0" type="veh_passenger"/>
    <trip id="veh10" depart="46.11" departLane="best" from="13848688#1" to="-434878401#1" type="veh_passenger"/>
    <trip id="veh11" depart="50.72" departLane="best" from="608420970#0" to="14333888#6" type="veh_passenger"/>
    <trip id="veh13" depart="59.94" departLane="best" departSpeed="max" from="39896043" to="262579556#1" type="veh_passenger"/>
    <trip id="veh15" depart="69.17" departLane="best" from="216969809#5" to="8367054" type="veh_passenger"/>
    <trip id="veh17" depart="78.39" departLane="best" from="434878401#1" to="26119992#8" type="veh_passenger"/>
    <trip id="veh18" depart="83.00" departLane="best" from="307804461#2" to="-252518642#1" type="veh_passenger"/>
    <trip id="veh19" depart="87.61" departLane="best" departSpeed="max" from="-39896053" to="14326558#0" type="veh_passenger"/>
    <trip id="veh20" depart="92.22" departLane="best" from="-252518642#1" to="128825638#2" type="veh_passenger"/>
    <trip id="veh21" depart="96.83" departLane="best" from="-26119992#3" to="14326464#7" type="veh_passenger"/>
    <trip id="veh22" depart="101.44" departLane="best" from="26119992#6" to="167487364" type="veh_passenger"/>
    <trip id="veh23" depart="106.05" departLane="best" from="14326558#0" to="128363657" type="veh_passenger"/>
    <trip id="veh24" depart="110.67" departLane="best" departSpeed="max" from="-96151239#3" to="60175941#0" type="veh_passenger"/>
    <trip id="veh25" depart="115.28" departLane="best" departSpeed="max" from="26207794#0" to="262945890#0" type="veh_passenger"/>
    <trip id="veh26" depart="119.89" departLane="best" departSpeed="max" from="-386286205" to="38336628#2" type="veh_passenger"/>
    <trip id="veh27" depart="124.50" departLane="best" departSpeed="max" from="-36748083#3" to="197464424#1" type="veh_passenger"/>
    <trip id="veh28" depart="129.11" departLane="best" from="8367098#1" to="292119381" type="veh_passenger"/>
    <trip id="veh29" depart="133.72" departLane="best" from="227888631#1" to="332479850#4" type="veh_passenger"/>
    <trip id="veh30" depart="138.33" departLane="best" from="39895304#1" to="39670508#0-AddedOnRampEdge" type="veh_passenger"/>
    <trip id="veh31" depart="142.94" departLane="best" departSpeed="max" from="-39896053" to="-210365858#2" type="veh_passenger"/>
    <trip id="veh33" depart="152.17" departLane="best" departSpeed="max" from="-39888043#1" to="60175941#3" type="veh_passenger"/>
    <trip id="veh35" depart="161.39" departLane="best" from="262474849#5" to="207634492" type="veh_passenger"/>
    <trip id="veh36" depart="166.00" departLane="best" from="484592257#0" to="216159806#1" type="veh_passenger"/>
    <trip id="veh37" depart="170.61" departLane="best" from="-8367089#1" to="13277357#4" type="veh_passenger"/>
    <trip id="veh38" depart="175.22" departLane="best" from="229802211" to="13836129#0" type="veh_passenger"/>
    <trip id="veh39" depart="179.83" departLane="best" from="255848372" to="482296561" type="veh_passenger"/>
    <trip id="veh40" depart="184.44" departLane="best" departSpeed="max" from="14327868#0" to="128363658#1" type="veh_passenger"/>
    <trip id="veh43" depart="198.28" departLane="best" from="-26119992#9" to="28193999#1" type="veh_passenger"/>
    <trip id="veh44" depart="202.89" departLane="best" departSpeed="max" from="39658536#0" to="210336697" type="veh_passenger"/>
    <trip id="veh45" depart="207.50" departLane="best" departSpeed="max" from="-216891254#1" to="206720845#0" type="veh_passenger"/>
    <trip id="veh47" depart="216.72" departLane="best" from="608421700#2-AddedOffRampEdge" to="434879926#2" type="veh_passenger"/>
    <trip id="veh50" depart="230.55" departLane="best" departSpeed="max" from="-96151239#3" to="292119381" type="veh_passenger"/>
    <trip id="veh52" depart="239.78" departLane="best" from="167487364" to="608420970#2" type="veh_passenger"/>
    <trip id="veh53" depart="244.39" departLane="best" from="448850568#0" to="13836129#2" type="veh_passenger"/>
    <trip id="veh54" depart="249.00" departLane="best" from="210851328#2" to="-8367089#1" type="veh_passenger"/>
    <trip id="veh56" depart="258.22" departLane="best" from="128363659#1" to="287648900" type="veh_passenger"/>
    <trip id="veh57" depart="262.83" departLane="best" departSpeed="max" from="38336627#0" to="258853579#0" type="veh_passenger"/>
    <trip id="veh58" depart="267.44" departLane="best" from="38336628#4" to="256431162#1" type="veh_passenger"/>
    <trip id="veh59" depart="272.05" departLane="best" from="-13277357#3" to="60175223#2" type="veh_passenger"/>
    <trip id="veh60" depart="276.67" departLane="best" from="448850570#2" to="39896053" type="veh_passenger"/>
    <trip id="veh61" depart="281.28" departLane="best" from="128825638#4" to="-256431162#0" type="veh_passenger"/>
    <trip id="veh62" depart="285.89" departLane="best" from="448850570#2" to="60175941#7" type="veh_passenger"/>
    <trip id="veh63" depart="290.50" departLane="best" from="-255848372" to="220232893#1" type="veh_passenger"/>
    <trip id="veh64" depart="295.11" departLane="best" from="206720845#1" to="26119844#1" type="veh_passenger"/>
    <trip id="veh65" depart="299.72" departLane="best" from="-8367089#1" to="448850570#8" type="veh_passenger"/>
    <trip id="veh66" depart="304.33" departLane="best" from="14333474" to="128363657" type="veh_passenger"/>
    <trip id="veh68" depart="313.55" departLane="best" from="8367104#8" to="304684297#1" type="veh_passenger"/>
    <trip id="veh69" depart="318.16" departLane="best" from="-262474849#1" to="128363659#1" type="veh_passenger"/>
    <trip id="veh71" depart="327.39" departLane="best" from="-434860177#0" to="128363658#1" type="veh_passenger"/>
    <trip id="veh72" depart="332.00" departLane="best" departSpeed="max" from="-39896053" to="484592257#0" type="veh_passenger"/>
    <trip id="veh73" depart="336.61" departLane="best" from="434878400#0" to="-26119992#3" type="veh_passenger"/>
    <trip id="veh74" depart="341.22" departLane="best" from="-434879926#1" to="31573135#2" type="veh_passenger"/>
    <trip id="veh75" depart="345.83" departLane="best" from="-39888049" to="-39678582#4" type="veh_passenger"/>
    <trip id="veh76" depart="350.44" departLane="best" from="59525260#2" to="26119992#4" type="veh_passenger"/>
    <trip id="veh77" depart="355.05" departLane="best" from="200967938" to="39678582#3" type="veh_passenger"/>
    <trip id="veh78" depart="359.66" departLane="best" from="-26119992#11" to="210841125#0" type="veh_passenger"/>
    <trip id="veh79" depart="364.28" departLane="best" from="14333500#0" to="216969809#3" type="veh_passenger"/>
    <trip id="veh80" depart="368.89" departLane="best" departSpeed="max" from="34607518#0" to="332053082#2" type="veh_passenger"/>
    <trip id="veh81" depart="373.50" departLane="best" from="8367070#0" to="-280786930#0" type="veh_passenger"/>
    <trip id="veh82" depart="378.11" departLane="best" from="14327868#2" to="156211618#0" type="veh_passenger"/>
    <trip id="veh83" depart="382.72" departLane="best" from="434878401#1" to="13277357#5" type="veh_passenger"/>
    <trip id="veh84" depart="387.33" departLane="best" from="-484592257#1" to="595164143#4" type="veh_passenger"/>
    <trip id="veh85" depart="391.94" departLane="best" from="167487357#0" to="448850568#0" type="veh_passenger"/>
    <trip id="veh86" depart="396.55" departLane="best" from="218020117" to="-255778743#0" type="veh_passenger"/>
    <trip id="veh87" depart="401.16" departLane="best" from="608421700#1" to="59525260#1" type="veh_passenger"/>
    <trip id="veh88" depart="405.78" departLane="best" from="434860177#0" to="-484592257#0" type="veh_passenger"/>
    <trip id="veh89" depart="410.39" departLane="best" from="207724051#0" to="128363657" type="veh_passenger"/>
    <trip id="veh90" depart="415.00" departLane="best" departSpeed="max" from="14327868#0" to="-256431162#0" type="veh_passenger"/>
    <trip id="veh91" depart="419.61" departLane="best" from="14326558#4" to="8367104#4" type="veh_passenger"/>
    <trip id="veh92" depart="424.22" departLane="best" departSpeed="max" from="-96151239#3" to="39671211" type="veh_passenger"/>
    <trip id="veh93" depart="428.83" departLane="best" from="167487526" to="210336698" type="veh_passenger"/>
    <trip id="veh94" depart="433.44" departLane="best" from="608420970#0" to="95841157" type="veh_passenger"/>
    <trip id="veh95" depart="438.05" departLane="best" from="226624856" to="374346169" type="veh_passenger"/>
    <trip id="veh96" depart="442.66" departLane="best" departSpeed="max" from="-34683151#1" to="14326558#3" type="veh_passenger"/>
    <trip id="veh97" depart="447.28" departLane="best" from="608421700#1" to="26119992#9" type="veh_passenger"/>
    <trip id="veh98" depart="451.89" departLane="best" from="216972581#3" to="386286210" type="veh_passenger"/>
    <trip id="veh100" depart="461.11" departLane="best" departSpeed="max" from="211314340#0" to="434878401#3" type="veh_passenger"/>
    <trip id="veh101" depart="465.72" departLane="best" departSpeed="max" from="-34683151#1" to="608421700#1" type="veh_passenger"/>
    <trip id="veh102" depart="470.33" departLane="best" from="-252518642#1" to="112465243#0" type="veh_passenger"/>
    <trip id="veh103" depart="474.94" departLane="best" from="-434878401#3" to="-36748084#2" type="veh_passenger"/>
    <trip id="veh106" depart="488.78" departLane="best" from="215210562#2" to="60175590#3" type="veh_passenger"/>
    <trip id="veh107" depart="493.39" departLane="best" from="-434879926#2" to="207634492" type="veh_passenger"/>
    <trip id="veh108" depart="498.00" departLane="best" from="262945890#5" to="14326558#4" type="veh_passenger"/>
    <trip id="veh109" depart="502.61" departLane="best" from="13277357#3" to="39658536#1" type="veh_passenger"/>
    <trip id="veh110" depart="507.22" departLane="best" departSpeed="max" from="-233007929" to="216159806#0" type="veh_passenger"/>
    <trip id="veh112" depart="516.44" departLane="best" departSpeed="max" from="-233007929" to="128363657" type="veh_passenger"/>
    <trip id="veh113" depart="521.05" departLane="best" departSpeed="max" from="-96151239#3" to="60175590#2" type="veh_passenger"/>
    <trip id="veh114" depart="525.66" departLane="best" from="448850570#6" to="452076637#3" type="veh_passenger"/>
    <trip id="veh115" depart="530.27" departLane="best" from="14326493#4" to="-434878401#4" type="veh_passenger"/>
    <trip id="veh116" depart="534.89" departLane="best" from="39894728#2" to="346992934#6" type="veh_passenger"/>
    <trip id="veh117" depart="539.50" departLane="best" from="26119844#0" to="8367104#8" type="veh_passenger"/>
    <trip id="veh118" depart="544.11" departLane="best" from="262474849#4" to="-13277357#1" type="veh_passenger"/>
    <trip id="veh119" depart="548.72" departLane="best" from="39888043#0" to="14326558#4" type="veh_passenger"/>
    <trip id="veh120" depart="553.33" departLane="best" from="262616020#0" to="60175941#2" type="veh_passenger"/>
    <trip id="veh121" depart="557.94" departLane="best" departSpeed="max" from="-278570718#3" to="-349620091" type="veh_passenger"/>
    <trip id="veh122" depart="562.55" departLane="best" from="-26119992#7" to="26119880" type="veh_passenger"/>
    <trip id="veh123" depart="567.16" departLane="best" from="112465240#2" to="262579556#2" type="veh_passenger"/>
    <trip id="veh124" depart="571.77" departLane="best" from="332053082#3" to="128362570#3" type="veh_passenger"/>
    <trip id="veh125" depart="576.39" departLane="best" from="26119992#5" to="13836129#2" type="veh_passenger"/>
    <trip id="veh126" depart="581.00" departLane="best" from="208580373#1" to="484592257#0" type="veh_passenger"/>
    <trip id="veh127" depart="585.61" departLane="best" departSpeed="max" from="39896043" to="-262474849#7" type="veh_passenger"/>
    <trip id="veh128" depart="590.22" departLane="best" from="-128362570#2" to="39670422#2" type="veh_passenger"/>
    <trip id="veh129" depart="594.83" departLane="best" from="26119992#6" to="13836129#0" type="veh_passenger"/>
    <trip id="veh130" depart="599.44" departLane="best" from="346992934#1" to="26119844#2" type="veh_passenger"/>
    <trip id="veh131" depart="604.05" departLane="best" from="14333500#5" to="-13277357#2" type="veh_passenger"/>
    <trip id="veh133" depart="613.27" departLane="best" from="482276569#1" to="259888928#0" type="veh_passenger"/>
    <trip id="veh135" depart="622.50" departLane="best" departSpeed="max" from="-287648900" to="-39658536#0" type="veh_passenger"/>
    <trip id="veh136" depart="627.11" departLane="best" from="128825640#0" to="482296562" type="veh_passenger"/>
    <trip id="veh137" depart="631.72" departLane="best" from="39668434#1" to="434879926#2" type="veh_passenger"/>
    <trip id="veh138" depart="636.33" departLane="best" from="482264025#1" to="128363657" type="veh_passenger"/>
    <trip id="veh139" depart="640.94" departLane="best" from="-484592257#1" to="-28193999#2" type="veh_passenger"/>
    <trip id="veh140" depart="645.55" departLane="best" from="38336628#5" to="482261339#0" type="veh_passenger"/>
    <trip id="veh141" depart="650.16" departLane="best" departSpeed="max" from="14328446#0" to="280786930#1" type="veh_passenger"/>
    <trip id="veh142" depart="654.77" departLane="best" departSpeed="max" from="-34683151#1" to="60175224#2" type="veh_passenger"/>
    <trip id="veh143" depart="659.39" departLane="best" from="434878401#2" to="8367070#0" type="veh_passenger"/>
    <trip id="veh144" depart="664.00" departLane="best" from="39678582#3" to="482240915#1" type="veh_passenger"/>
    <trip id="veh145" depart="668.61" departLane="best" from="-14333888#3" to="38336628#5" type="veh_passenger"/>
    <trip id="veh146" depart="673.22" departLane="best" departSpeed="max" from="13848688#0" to="60175590#0" type="veh_passenger"/>
    <trip id="veh147" depart="677.83" departLane="best" from="39669380" to="448850570#1" type="veh_passenger"/>
    <trip id="veh149" depart="687.05" departLane="best" from="174689857" to="14326572#3" type="veh_passenger"/>
    <trip id="veh150" depart="691.66" departLane="best" from="39668434#0" to="128823187#1" type="veh_passenger"/>
    <trip id="veh151" depart="696.27" departLane="best" from="-14333888#1" to="112635323#0" type="veh_passenger"/>
    <trip id="veh152" depart="700.89" departLane="best" from="13836129#0" to="448850570#1" type="veh_passenger"/>
    <trip id="veh153" depart="705.50" departLane="best" from="26119992#9" to="207634492" type="veh_passenger"/>
    <trip id="veh155" depart="714.72" departLane="best" from="60175590#0" to="-349620091" type="veh_passenger"/>
    <trip id="veh156" depart="719.33" departLane="best" from="608421700#2-AddedOffRampEdge" to="-8367089#1" type="veh_passenger"/>
    <trip id="veh161" depart="742.38" departLane="best" from="14326572#2" to="26119992#8" type="veh_passenger"/>
    <trip id="veh162" depart="747.00" departLane="best" from="-551619530#0" to="36740122" type="veh_passenger"/>
    <trip id="veh163" depart="751.61" departLane="best" from="-128362570#0" to="59525257#2" type="veh_passenger"/>
    <trip id="veh164" depart="756.22" departLane="best" from="216972581#0" to="374346173" type="veh_passenger"/>
    <trip id="veh165" depart="760.83" departLane="best" from="346992934#2" to="332053082#0" type="veh_passenger"/>
    <trip id="veh166" depart="765.44" departLane="best" from="14326493#2" to="-26119992#2" type="veh_passenger"/>
    <trip id="veh167" depart="770.05" departLane="best" from="262616020#1" to="14333500#3" type="veh_passenger"/>
    <trip id="veh168" depart="774.66" departLane="best" from="13277357#2" to="434878401#0" type="veh_passenger"/>
    <trip id="veh169" depart="779.27" departLane="best" from="332479850#0" to="14326572#0" type="veh_passenger"/>
    <trip id="veh170" depart="783.88" departLane="best" from="128825640#1" to="207724055" type="veh_passenger"/>
    <trip id="veh171" depart="788.50" departLane="best" from="14327868#2" to="14326558#3" type="veh_passenger"/>
    <trip id="veh172" depart="793.11" departLane="best" from="-262474849#5" to="210328137" type="veh_passenger"/>
    <trip id="veh173" depart="797.72" departLane="best" from="60175590#1" to="332479850#0" type="veh_passenger"/>
    <trip id="veh174" depart="802.33" departLane="best" from="482276569#0" to="275860210" type="veh_passenger"/>
    <trip id="veh175" depart="806.94" departLane="best" from="128823187#0" to="259888928#2" type="veh_passenger"/>
    <trip id="veh176" depart="811.55" departLane="best" from="-12298717" to="14326493#4" type="veh_passenger"/>
    <trip id="veh177" depart="816.16" departLane="best" from="262474849#5" to="216891254#0" type="veh_passenger"/>
    <trip id="veh178" depart="820.77" departLane="best" from="167487357#0" to="128363657" type="veh_passenger"/>
    <trip id="veh179" depart="825.38" departLane="best" from="206720845#0" to="482296563#0" type="veh_passenger"/>
    <trip id="veh180" depart="830.00" departLane="best" from="39668434#1" to="-548373860" type="veh_passenger"/>
    <trip id="veh181" depart="834.61" departLane="best" from="-255778743#3" to="252518644#0" type="veh_passenger"/>
    <trip id="veh182" depart="839.22" departLane="best" from="26119992#4" to="14333888#3" type="veh_passenger"/>
    <trip id="veh183" depart="843.83" departLane="best" from="39888045#1" to="394998026#3" type="veh_passenger"/>
    <trip id="veh184" depart="848.44" departLane="best" from="27149319#1" to="128363659#1" type="veh_passenger"/>
    <trip id="veh185" depart="853.05" departLane="best" departSpeed="max" from="-39690472" to="-200072875" type="veh_passenger"/>
    <trip id="veh186" depart="857.66" departLane="best" from="-482261338#1" to="216972581#3" type="veh_passenger"/>
    <trip id="veh187" depart="862.27" departLane="best" from="434860177#0" to="-26119992#4" type="veh_passenger"/>
    <trip id="veh188" depart="866.88" departLane="best" from="14328446#5" to="287648900" type="veh_passenger"/>
    <trip id="veh189" depart="871.50" departLane="best" departSpeed="max" from="210365858#0" to="13277357#2" type="veh_passenger"/>
    <trip id="veh190" depart="876.11" departLane="best" from="262474849#6" to="-128825640#0" type="veh_passenger"/>
    <trip id="veh191" depart="880.72" departLane="best" from="349620090#3" to="39670422#1" type="veh_passenger"/>
    <trip id="veh192" depart="885.33" departLane="best" from="-26119992#7" to="210339821#1" type="veh_passenger"/>
    <trip id="veh193" depart="889.94" departLane="best" departSpeed="max" from="-386286206#1" to="608420973" type="veh_passenger"/>
    <trip id="veh194" depart="894.55" departLane="best" from="215200349#1" to="-255778743#0" type="veh_passenger"/>
    <trip id="veh195" depart="899.16" departLane="best" from="-484592257#1" to="434878401#0" type="veh_passenger"/>
    <trip id="veh196" depart="903.77" departLane="best" departSpeed="max" from="174689856" to="39888043#1" type="veh_passenger"/>
    <trip id="veh197" depart="908.38" departLane="best" from="262945890#0" to="8367114#0" type="veh_passenger"/>
    <trip id="veh198" depart="912.99" departLane="best" departSpeed="max" from="256431162#0" to="608420970#0" type="veh_passenger"/>
    <trip id="veh199" depart="917.61" departLane="best" from="452076637#0" to="262945890#4" type="veh_passenger"/>
    <trip id="veh200" depart="922.22" departLane="best" from="332479850#0" to="233098267" type="veh_passenger"/>
    <trip id="veh201" depart="926.83" departLane="best" from="39894728#0" to="259888928#2" type="veh_passenger"/>
    <trip id="veh202" depart="931.44" departLane="best" from="482261339#0" to="386286206#1" type="veh_passenger"/>
    <trip id="veh203" depart="936.05" departLane="best" from="206720845#1" to="13801868#1" type="veh_passenger"/>
    <trip id="veh204" depart="940.66" departLane="best" from="-482296560#1" to="287648900" type="veh_passenger"/>
    <trip id="veh205" depart="945.27" departLane="best" from="38336627#1" to="255848372" type="veh_passenger"/>
    <trip id="veh206" depart="949.88" departLane="best" from="26119992#10" to="14326464#4" type="veh_passenger"/>
    <trip id="veh207" depart="954.49" departLane="best" from="-239593895#1" to="14326493#3" type="veh_passenger"/>
    <trip id="veh209" depart="963.72" departLane="best" from="216972581#1" to="-39888045#1" type="veh_passenger"/>
    <trip id="veh210" depart="968.33" departLane="best" from="-434860177#0" to="34683151#0" type="veh_passenger"/>
    <trip id="veh211" depart="972.94" departLane="best" from="307804461#3" to="-26119992#0" type="veh_passenger"/>
    <trip id="veh212" depart="977.55" departLane="best" departSpeed="max" from="14328446#0" to="258853581#3" type="veh_passenger"/>
    <trip id="veh213" depart="982.16" departLane="best" from="14328446#5" to="128363657" type="veh_passenger"/>
    <trip id="veh214" depart="986.77" departLane="best" from="14333321#2" to="484592256#3" type="veh_passenger"/>
    <trip id="veh215" depart="991.38" departLane="best" from="255778743#3" to="34683151#0" type="veh_passenger"/>
    <trip id="veh216" depart="995.99" departLane="best" from="434872534#5" to="39669069#2" type="veh_passenger"/>
    <trip id="veh217" depart="1000.61" departLane="best" from="14326558#4" to="-128825640#0" type="veh_passenger"/>
    <trip id="veh218" depart="1005.22" departLane="best" from="142214763#1" to="39658536#2" type="veh_passenger"/>
    <trip id="veh219" depart="1009.83" departLane="best" from="434872534#2" to="608420970#2" type="veh_passenger"/>
    <trip id="veh220" depart="1014.44" departLane="best" from="216972801#1" to="262474849#9" type="veh_passenger"/>
    <trip id="veh221" depart="1019.05" departLane="best" from="-39888372#1" to="128363658#1" type="veh_passenger"/>
    <trip id="veh222" depart="1023.66" departLane="best" from="156211618#0" to="-210365858#0" type="veh_passenger"/>
    <trip id="veh223" depart="1028.27" departLane="best" departSpeed="max" from="13848688#0" to="332479850#1" type="veh_passenger"/>
    <trip id="veh224" depart="1032.88" departLane="best" departSpeed="max" from="14328446#0" to="-482296560#1" type="veh_passenger"/>
    <trip id="veh225" depart="1037.49" departLane="best" from="190128490" to="-39658536#0" type="veh_passenger"/>
    <trip id="veh226" depart="1042.11" departLane="best" from="26119900#1" to="-210339821#0" type="veh_passenger"/>
    <trip id="veh227" depart="1046.72" departLane="best" departSpeed="max" from="14327351#0" to="26119992#10" type="veh_passenger"/>
    <trip id="veh228" depart="1051.33" departLane="best" from="-146190183#1" to="30405557#0" type="veh_passenger"/>
    <trip id="veh229" depart="1055.94" departLane="best" departSpeed="max" from="-278570718#3" to="216891254#0" type="veh_passenger"/>
    <trip id="veh231" depart="1065.16" departLane="best" departSpeed="max" from="-39888043#1" to="14333474" type="veh_passenger"/>
    <trip id="veh232" depart="1069.77" departLane="best" from="374346173" to="197464424#1" type="veh_passenger"/>
    <trip id="veh233" depart="1074.38" departLane="best" from="349620091" to="39896053" type="veh_passenger"/>
    <trip id="veh234" depart="1078.99" departLane="best" departSpeed="max" from="-548373865" to="-262474849#0" type="veh_passenger"/>
    <trip id="veh235" depart="1083.61" departLane="best" from="-13277357#3" to="258853579#0" type="veh_passenger"/>
    <trip id="veh236" depart="1088.22" departLane="best" from="95841157" to="167057944#0" type="veh_passenger"/>
    <trip id="veh237" depart="1092.83" departLane="best" from="262474849#1" to="39670518#3" type="veh_passenger"/>
    <trip id="veh238" depart="1097.44" departLane="best" from="262474849#2" to="39658536#2" type="veh_passenger"/>
    <trip id="veh239" depart="1102.05" departLane="best" from="60175941#3" to="124539828#1" type="veh_passenger"/>
    <trip id="veh240" depart="1106.66" departLane="best" from="-13277357#4" to="-434860177#0" type="veh_passenger"/>
    <trip id="veh241" depart="1111.27" departLane="best" from="-262474849#5" to="31573135#2" type="veh_passenger"/>
    <trip id="veh242" depart="1115.88" departLane="best" from="233006425#0" to="128363658#1" type="veh_passenger"/>
    <trip id="veh243" depart="1120.49" departLane="best" from="304688480#2" to="39669178#1" type="veh_passenger"/>
    <trip id="veh244" depart="1125.10" departLane="best" from="39888049" to="608421700#3" type="veh_passenger"/>
    <trip id="veh245" depart="1129.72" departLane="best" from="608420970#0" to="207634492" type="veh_passenger"/>
    <trip id="veh246" depart="1134.33" departLane="best" from="332053082#2" to="-26119992#6" type="veh_passenger"/>
    <trip id="veh247" depart="1138.94" departLane="best" departSpeed="max" from="30405423" to="28193999#1" type="veh_passenger"/>
    <trip id="veh248" depart="1143.55" departLane="best" from="-26119992#4" to="39670422#2" type="veh_passenger"/>
    <trip id="veh249" depart="1148.16" departLane="best" from="434860177#1" to="262474849#8" type="veh_passenger"/>
    <trip id="veh250" depart="1152.77" departLane="best" from="-262474849#1" to="8367104#2" type="veh_passenger"/>
    <trip id="veh251" depart="1157.38" departLane="best" from="38336628#5" to="157156090#2" type="veh_passenger"/>
    <trip id="veh252" depart="1161.99" departLane="best" from="14333733#0" to="190128487#3" type="veh_passenger"/>
    <trip id="veh253" depart="1166.60" departLane="best" departSpeed="max" from="211314340#0" to="156211619" type="veh_passenger"/>
    <trip id="veh254" depart="1171.22" departLane="best" from="434860177#0" to="39894728#3" type="veh_passenger"/>
    <trip id="veh255" depart="1175.83" departLane="best" from="-26119992#6" to="608421700#1" type="veh_passenger"/>
    <trip id="veh256" depart="1180.44" departLane="best" from="30912936" to="211436103#0" type="veh_passenger"/>
    <trip id="veh257" depart="1185.05" departLane="best" from="34607518#3" to="608421700#5" type="veh_passenger"/>
    <trip id="veh259" depart="1194.27" departLane="best" from="156211618#0" to="38336628#4" type="veh_passenger"/>
    <trip id="veh260" depart="1198.88" departLane="best" departSpeed="max" from="-96151239#3" to="434878401#3" type="veh_passenger"/>
    <trip id="veh261" depart="1203.49" departLane="best" from="39894728#0" to="-262474849#2" type="veh_passenger"/>
    <trip id="veh262" depart="1208.10" departLane="best" from="448850570#6" to="13277357#2" type="veh_passenger"/>
    <trip id="veh263" depart="1212.72" departLane="best" from="190128487#4" to="262945890#1" type="veh_passenger"/>
    <trip id="veh264" depart="1217.33" departLane="best" from="434860177#1" to="112465240#1" type="veh_passenger"/>
    <trip id="veh265" depart="1221.94" departLane="best" departSpeed="max" from="-39888043#1" to="39862802" type="veh_passenger"/>
    <trip id="veh266" depart="1226.55" departLane="best" departSpeed="max" from="-128363658#1" to="608420970#0" type="veh_passenger"/>
    <trip id="veh268" depart="1235.77" departLane="best" from="208580373#1" to="39668434#0" type="veh_passenger"/>
    <trip id="veh269" depart="1240.38" departLane="best" departSpeed="max" from="30405423" to="304680071" type="veh_passenger"/>
    <trip id="veh271" depart="1249.60" departLane="best" from="304680071" to="14326572#3" type="veh_passenger"/>
    <trip id="veh272" depart="1254.22" departLane="best" departSpeed="max" from="255778743#0" to="216972581#1" type="veh_passenger"/>
    <trip id="veh273" depart="1258.83" departLane="best" from="216159806#1" to="210339821#1" type="veh_passenger"/>
    <trip id="veh274" depart="1263.44" departLane="best" from="346992934#7" to="14333500#4" type="veh_passenger"/>
    <trip id="veh275" depart="1268.05" departLane="best" from="307804461#1" to="14326464#2" type="veh_passenger"/>
    <trip id="veh276" depart="1272.66" departLane="best" departSpeed="max" from="-548373865" to="-386286206#0" type="veh_passenger"/>
    <trip id="veh277" depart="1277.27" departLane="best" departSpeed="max" from="-39669069#2" to="-36748084#2" type="veh_passenger"/>
    <trip id="veh278" depart="1281.88" departLane="best" from="216969809#5" to="39668885#2" type="veh_passenger"/>
    <trip id="veh279" depart="1286.49" departLane="best" departSpeed="max" from="-39658536#2" to="128363658#1" type="veh_passenger"/>
    <trip id="veh280" depart="1291.10" departLane="best" from="207634523#0" to="38336628#1" type="veh_passenger"/>
    <trip id="veh281" depart="1295.72" departLane="best" from="8366889#1" to="256249046#2" type="veh_passenger"/>
    <trip id="veh282" depart="1300.33" departLane="best" from="124539825" to="-28193999#0" type="veh_passenger"/>
    <trip id="veh283" depart="1304.94" departLane="best" departSpeed="max" from="-39669069#2" to="128823187#1" type="veh_passenger"/>